1
    SWAT  May '02 VERSION2003                                                                            0/ 0/   0      0: 0: 0

    General Input/Output section (file.cio): ArcSWAT 2.3.4                          
    2013/5/29 0:00:00ARCGIS-SWAT interface AV                                       
                                                                                    
         Number of years in run:    5
         Area of watershed:    11050.589 km2
         Random number generator cycles: 0, use default numbers

         Initial random number seed: wet/dry day prob        748932582
         Initial random number seed: radiation              1948832765
         Initial random number seed: precipitation           857034417
         Initial random number seed: 0.5 hr rainfall          67377721
         Initial random number seed: wind speed              366304404
         Initial random number seed: irrigation             1094585182
         Initial random number seed: relative humidity      1767585417
         Initial random number seed: max temperature         608439319
         Initial random number seed: min temperature         592757081

         Precipitation data used in run:
          Multiple gages read for watershed
             Daily rainfall data used

         Temperature data used in run:
          Multiple gages read for watershed

         PET method used: Penman-Monteith

         Rainfall/Runoff/Routing Option:
          Daily rainfall data
          Runoff estimated with curve number method
          Daily stream routing
           Variable Storage routing method
           Channel dimensions remain constant
           Subbasin algae/CBOD loadings modeled
           In-stream nutrient transformations modeled using QUAL2E equations

         Crack flow modeled

         Subbasin Input Summary:
          Sub Latitude  Elev(m) #HRUs Ponds Elevbnds Wetlnd
            1    39.79  2498.00     3          x        
            2    39.64  3577.00     8          x        
            3    39.62  2590.00     9          x        
            4    39.49  2478.00     3          x        
            5    39.51  3327.00     3          x        
            6    39.51  3056.00     5          x        
            7    39.46  2999.00     3          x        
            8    39.43  2845.00     4          x        
            9    39.34  3958.00     2          x        
           10    39.38  2715.00     6          x        
           11    39.35  4003.00     2          x        
           12    39.23  4053.00     5          x        
           13    39.20  3294.00     2          x        
           14    39.20  3662.00     5          x        
           15    39.15  2896.00     7          x        
           16    39.01  4086.00     6          x        
           17    39.11  3130.00     8          x        
           18    39.05  3195.00    10          x        
           19    39.13  3968.00     5          x        
           20    38.94  4680.00    10          x        
           21    38.96  4141.00     5          x        
           22    38.93  4294.00    11          x        
           23    39.05  3681.00     6          x        
           24    38.91  3660.00    11          x        
           25    38.92  3676.00     6          x        
           26    38.79  3878.00     9          x        
           27    38.78  4344.00     4          x        
           28    38.81  3544.00    12          x        
           29    38.80  3877.00     5          x        
           30    38.66  4717.00     6          x        
           31    38.68  4068.00     5          x        
           32    38.65  3675.00     7          x        
           33    38.55  4186.00     8          x        
           34    38.47  4372.00     9          x        
           35    38.50  3910.00     7          x        
           36    38.53  3963.00     3          x        
           37    38.44  3827.00     2                   
           38    38.33  4087.00     5          x        
           39    38.37  3868.00     6          x        
           40    38.38  3995.00     6          x        
           41    38.34  4129.00     7          x        

         HRU Input Summary Table 1:
          Sub   HRU   Area(ha) Slope SlpLgth(m) Ovrlnd_N CondII_CN TimeConc(hr) ESCO EPCO
            1     1    5856.27 0.079      61.46    0.150     71.37        1.207 0.45 0.10
            1     2    1143.63 0.320      10.00    0.150     93.60        0.281 0.45 0.10
            1     3    2224.12 0.121      61.46    0.150     93.60        0.721 0.45 0.10
            2     4    8905.92 0.126      61.46    0.150     92.43        1.159 0.45 0.10
            2     5    8881.22 0.330      10.00    0.150     92.43        0.863 0.45 0.10
            2     6     727.55 0.331      10.00    0.150     86.58        0.184 0.45 0.10
            2     7     335.45 0.537      10.00    0.150     86.58        0.129 0.45 0.10
            2     8     328.12 0.152      24.58    0.150     86.58        0.257 0.45 0.10
            2     9    1281.17 0.086      61.46    0.150     71.37        0.580 0.45 0.10
            2    10    1840.47 0.111      61.46    0.150     93.60        0.600 0.45 0.10
            2    11     988.38 0.315      10.00    0.150     93.60        0.212 0.45 0.10
            3    12    6345.53 0.345      10.00    0.150     92.43        0.470 0.45 0.10
            3    13    6655.90 0.552      10.00    0.150     92.43        0.473 0.45 0.10
            3    14    4113.10 0.600      10.00    0.150     92.43        0.337 0.45 0.10
            3    15    3221.03 0.346      10.00    0.150     86.58        0.303 0.45 0.10
            3    16    3226.50 0.600      10.00    0.150     86.58        0.289 0.45 0.10
            3    17    3410.35 0.556      10.00    0.150     86.58        0.301 0.45 0.10
            3    18    2968.67 0.347      10.00    0.150     93.60        0.289 0.45 0.10
            3    19    3716.90 0.560      10.00    0.150     93.60        0.317 0.45 0.10
            3    20    4381.13 0.600      10.00    0.150     93.60        0.352 0.45 0.10
            4    21     410.78 0.600      10.00    0.150     86.58        0.215 0.45 0.10
            4    22     575.88 0.554      10.00    0.150     86.58        0.262 0.45 0.10
            4    23     534.27 0.343      10.00    0.150     86.58        0.264 0.45 0.10
            5    24    7535.37 0.113      61.46    0.150     92.43        0.867 0.45 0.10
            5    25    9143.00 0.111      61.46    0.150     86.58        0.955 0.45 0.10
            5    26    4366.34 0.332      10.00    0.150     86.58        0.385 0.45 0.10
            6    27    1549.02 0.338      10.00    0.150     92.43        0.278 0.45 0.10
            6    28    1147.50 0.548      10.00    0.150     92.43        0.223 0.45 0.10
            6    29    1421.26 0.557      10.00    0.150     86.58        0.251 0.45 0.10
            6    30    1191.80 0.350      10.00    0.150     86.58        0.240 0.45 0.10
            6    31    1243.14 0.600      10.00    0.150     86.58        0.231 0.45 0.10
            7    32   13865.50 0.134      61.46    0.150     92.43        1.200 0.45 0.10
            7    33   11022.66 0.547      10.00    0.150     92.43        0.752 0.45 0.10
            7    34   18496.34 0.331      10.00    0.150     92.43        1.147 0.45 0.10
            8    35    1114.01 0.325      10.00    0.150     92.43        0.272 0.45 0.10
            8    36    1495.01 0.128      61.46    0.150     92.43        0.615 0.45 0.10
            8    37     612.87 0.333      10.00    0.150     86.58        0.201 0.45 0.10
            8    38     892.65 0.099      61.46    0.150     86.58        0.565 0.45 0.10
            9    39    7188.72 0.319      10.00    0.150     92.43        0.608 0.45 0.10
            9    40   11656.59 0.128      61.46    0.150     92.43        1.165 0.45 0.10
           10    41    3179.96 0.139      24.58    0.150     92.43        0.372 0.45 0.10
           10    42    3454.36 0.336      10.00    0.150     92.43        0.263 0.45 0.10
           10    43    3250.69 0.558      10.00    0.150     92.43        0.240 0.45 0.10
           10    44    3277.13 0.600      10.00    0.150     92.43        0.239 0.45 0.10
           10    45   11872.39 0.567      10.00    0.150     86.58        0.568 0.45 0.10
           10    46   19113.95 0.600      10.00    0.150     86.58        0.816 0.45 0.10
           11    47   14906.76 0.600      10.00    0.150     86.58        0.997 0.45 0.10
           11    48   11748.66 0.565      10.00    0.150     86.58        0.826 0.45 0.10
           12    49    9100.84 0.329      10.00    0.150     92.43        0.716 0.45 0.10
           12    50   11823.37 0.121      61.46    0.150     92.43        1.173 0.45 0.10
           12    51    5568.14 0.600      10.00    0.150     86.58        0.484 0.45 0.10
           12    52    5899.54 0.560      10.00    0.150     86.58        0.507 0.45 0.10
           12    53    5344.55 0.341      10.00    0.150     86.58        0.485 0.45 0.10
           13    54    3022.13 0.568      10.00    0.150     86.58        0.356 0.45 0.10
           13    55    7025.53 0.600      10.00    0.150     86.58        0.651 0.45 0.10
           14    56    5382.28 0.134      61.46    0.150     92.43        0.661 0.45 0.10
           14    57    5206.62 0.325      10.00    0.150     92.43        0.367 0.45 0.10
           14    58   11504.87 0.340      10.00    0.150     86.58        0.633 0.45 0.10
           14    59   10560.45 0.553      10.00    0.150     86.58        0.581 0.45 0.10
           14    60    7939.47 0.600      10.00    0.150     86.58        0.469 0.45 0.10
           15    61     104.63 0.131      61.46    0.150     92.43        0.411 0.45 0.10
           15    62     116.25 0.328      10.00    0.150     92.43        0.125 0.45 0.10
           15    63     316.47 0.600      10.00    0.150     86.58        0.145 0.45 0.10
           15    64     150.08 0.572      10.00    0.150     86.58        0.116 0.45 0.10
           15    65      94.23 0.130      61.46    0.150     86.58        0.410 0.45 0.10
           15    66      65.53 0.327      10.00    0.150     86.58        0.115 0.45 0.10
           15    67      87.27 0.600      10.00    0.150     86.58        0.103 0.45 0.10
           16    68    2508.32 0.333      10.00    0.150     92.43        0.330 0.45 0.10
           16    69    1540.07 0.140      24.58    0.150     92.43        0.370 0.45 0.10
           16    70    1490.85 0.547      10.00    0.150     92.43        0.232 0.45 0.10
           16    71    5548.88 0.342      10.00    0.150     86.58        0.561 0.45 0.10
           16    72    5097.76 0.553      10.00    0.150     86.58        0.515 0.45 0.10
           16    73    3429.35 0.600      10.00    0.150     86.58        0.387 0.45 0.10
           17    74    1465.86 0.339      10.00    0.150     92.43        0.195 0.45 0.10
           17    75    1345.20 0.554      10.00    0.150     92.43        0.174 0.45 0.10
           17    76    1207.74 0.600      10.00    0.150     92.43        0.164 0.45 0.10
           17    77     398.19 0.311      10.00    0.150     92.43        0.132 0.45 0.10
           17    78    1347.89 0.108      61.46    0.150     92.43        0.501 0.45 0.10
           17    79    5263.30 0.559      10.00    0.150     86.58        0.380 0.45 0.10
           17    80    4317.66 0.347      10.00    0.150     86.58        0.346 0.45 0.10
           17    81    5955.93 0.600      10.00    0.150     86.58        0.412 0.45 0.10
           18    82     976.61 0.600      10.00    0.150     92.43        0.146 0.45 0.10
           18    83     944.54 0.131      61.46    0.150     92.43        0.449 0.45 0.10
           18    84    1224.83 0.338      10.00    0.150     92.43        0.176 0.45 0.10
           18    85    1076.97 0.556      10.00    0.150     92.43        0.154 0.45 0.10
           18    86     547.56 0.549      10.00    0.150     92.43        0.123 0.45 0.10
           18    87     457.84 0.146      24.58    0.150     92.43        0.249 0.45 0.10
           18    88     808.76 0.334      10.00    0.150     92.43        0.152 0.45 0.10
           18    89    3258.26 0.342      10.00    0.150     86.58        0.280 0.45 0.10
           18    90    3454.22 0.557      10.00    0.150     86.58        0.276 0.45 0.10
           18    91    3502.38 0.600      10.00    0.150     86.58        0.277 0.45 0.10
           19    92    1027.85 0.600      10.00    0.150     92.43        0.172 0.45 0.10
           19    93    1222.53 0.339      10.00    0.150     92.43        0.202 0.45 0.10
           19    94    1100.18 0.558      10.00    0.150     92.43        0.179 0.45 0.10
           19    95    3433.36 0.566      10.00    0.150     86.58        0.339 0.45 0.10
           19    96    4529.50 0.600      10.00    0.150     86.58        0.408 0.45 0.10
           20    97    1704.47 0.140      24.58    0.150     92.43        0.368 0.45 0.10
           20    98    1330.53 0.540      10.00    0.150     92.43        0.205 0.45 0.10
           20    99    2724.86 0.331      10.00    0.150     92.43        0.323 0.45 0.10
           20   100    2475.93 0.329      10.00    0.150     92.43        0.305 0.45 0.10
           20   101    1393.27 0.150      24.58    0.150     92.43        0.339 0.45 0.10
           20   102    1763.00 0.552      10.00    0.150     86.58        0.238 0.45 0.10
           20   103    1337.40 0.600      10.00    0.150     86.58        0.203 0.45 0.10
           20   104    2412.22 0.337      10.00    0.150     86.58        0.300 0.45 0.10
           20   105    1823.67 0.338      10.00    0.150     86.58        0.256 0.45 0.10
           20   106    1131.22 0.545      10.00    0.150     86.58        0.189 0.45 0.10
           21   107    2224.78 0.144      24.58    0.150     92.43        0.426 0.45 0.10
           21   108    3741.66 0.333      10.00    0.150     92.43        0.427 0.45 0.10
           21   109    1949.47 0.540      10.00    0.150     92.43        0.271 0.45 0.10
           21   110    5002.17 0.547      10.00    0.150     86.58        0.509 0.45 0.10
           21   111    6385.63 0.341      10.00    0.150     86.58        0.622 0.45 0.10
           22   112    2236.02 0.334      10.00    0.150     92.43        0.237 0.45 0.10
           22   113    1452.64 0.548      10.00    0.150     92.43        0.180 0.45 0.10
           22   114    1539.06 0.140      24.58    0.150     92.43        0.319 0.45 0.10
           22   115    1664.37 0.547      10.00    0.150     92.43        0.192 0.45 0.10
           22   116    2459.48 0.334      10.00    0.150     92.43        0.249 0.45 0.10
           22   117    3526.63 0.558      10.00    0.150     86.58        0.291 0.45 0.10
           22   118    3107.84 0.346      10.00    0.150     86.58        0.282 0.45 0.10
           22   119    2904.34 0.600      10.00    0.150     86.58        0.257 0.45 0.10
           22   120    2432.33 0.556      10.00    0.150     86.58        0.233 0.45 0.10
           22   121    2376.35 0.345      10.00    0.150     86.58        0.244 0.45 0.10
           22   122    1613.56 0.600      10.00    0.150     86.58        0.187 0.45 0.10
           23   123    4377.48 0.600      10.00    0.150     92.43        0.348 0.45 0.10
           23   124    4985.05 0.337      10.00    0.150     92.43        0.396 0.45 0.10
           23   125    4855.01 0.560      10.00    0.150     92.43        0.375 0.45 0.10
           23   126   11482.00 0.600      10.00    0.150     86.58        0.700 0.45 0.10
           23   127    9685.88 0.566      10.00    0.150     86.58        0.616 0.45 0.10
           23   128    6221.11 0.349      10.00    0.150     86.58        0.458 0.45 0.10
           24   129     716.84 0.548      10.00    0.150     92.43        0.138 0.45 0.10
           24   130     957.06 0.137      24.58    0.150     92.43        0.289 0.45 0.10
           24   131    1055.27 0.331      10.00    0.150     92.43        0.173 0.45 0.10
           24   132    1726.35 0.336      10.00    0.150     92.43        0.213 0.45 0.10
           24   133    1137.10 0.553      10.00    0.150     92.43        0.164 0.45 0.10
           24   134    1415.28 0.347      10.00    0.150     86.58        0.193 0.45 0.10
           24   135    2008.54 0.565      10.00    0.150     86.58        0.215 0.45 0.10
           24   136    1846.94 0.600      10.00    0.150     86.58        0.204 0.45 0.10
           24   137    1579.36 0.565      10.00    0.150     86.58        0.190 0.45 0.10
           24   138    1567.62 0.600      10.00    0.150     86.58        0.188 0.45 0.10
           24   139    1048.57 0.348      10.00    0.150     86.58        0.171 0.45 0.10
           25   140    5991.18 0.333      10.00    0.150     92.43        0.465 0.45 0.10
           25   141    4164.58 0.138      24.58    0.150     92.43        0.487 0.45 0.10
           25   142    4240.90 0.552      10.00    0.150     92.43        0.356 0.45 0.10
           25   143    3962.80 0.341      10.00    0.150     86.58        0.353 0.45 0.10
           25   144    4637.44 0.600      10.00    0.150     86.58        0.376 0.45 0.10
           25   145    4525.28 0.562      10.00    0.150     86.58        0.371 0.45 0.10
           26   146    4512.00 0.549      10.00    0.150     92.43        0.237 0.45 0.10
           26   147    8018.18 0.328      10.00    0.150     92.43        0.351 0.45 0.10
           26   148    7115.77 0.135      24.58    0.150     92.43        0.449 0.45 0.10
           26   149    7720.85 0.341      10.00    0.150     86.58        0.342 0.45 0.10
           26   150    7525.89 0.600      10.00    0.150     86.58        0.321 0.45 0.10
           26   151    7837.70 0.559      10.00    0.150     86.58        0.332 0.45 0.10
           26   152    1491.54 0.351      10.00    0.150     86.58        0.155 0.45 0.10
           26   153    2739.39 0.567      10.00    0.150     86.58        0.183 0.45 0.10
           26   154    2808.68 0.600      10.00    0.150     86.58        0.183 0.45 0.10
           27   155   17050.50 0.117      61.46    0.150     92.43        1.189 0.45 0.10
           27   156    7163.84 0.312      10.00    0.150     92.43        0.469 0.45 0.10
           27   157    6884.59 0.320      10.00    0.150     86.58        0.456 0.45 0.10
           27   158    6685.58 0.141      24.58    0.150     86.58        0.566 0.45 0.10
           28   159     712.57 0.121      61.46    0.150     92.43        0.480 0.45 0.10
           28   160     971.21 0.341      10.00    0.150     92.43        0.207 0.45 0.10
           28   161     853.56 0.550      10.00    0.150     92.43        0.182 0.45 0.10
           28   162     858.76 0.139      24.58    0.150     92.43        0.318 0.45 0.10
           28   163    1695.87 0.340      10.00    0.150     92.43        0.276 0.45 0.10
           28   164    1132.03 0.543      10.00    0.150     92.43        0.210 0.45 0.10
           28   165    1479.36 0.345      10.00    0.150     86.58        0.255 0.45 0.10
           28   166    1801.50 0.559      10.00    0.150     86.58        0.272 0.45 0.10
           28   167    1475.23 0.600      10.00    0.150     86.58        0.240 0.45 0.10
           28   168    1572.52 0.600      10.00    0.150     86.58        0.249 0.45 0.10
           28   169    2166.32 0.349      10.00    0.150     86.58        0.317 0.45 0.10
           28   170    2569.63 0.556      10.00    0.150     86.58        0.340 0.45 0.10
           29   171    9964.82 0.122      61.46    0.150     92.43        0.949 0.45 0.10
           29   172    4684.52 0.315      10.00    0.150     92.43        0.386 0.45 0.10
           29   173    4146.43 0.102      61.46    0.150     86.58        0.675 0.45 0.10
           29   174    3334.90 0.333      10.00    0.150     86.58        0.311 0.45 0.10
           29   175    3003.02 0.557      10.00    0.150     86.58        0.278 0.45 0.10
           30   176    2935.30 0.334      10.00    0.150     92.43        0.383 0.45 0.10
           30   177    2108.43 0.551      10.00    0.150     92.43        0.297 0.45 0.10
           30   178    1684.15 0.146      24.58    0.150     92.43        0.391 0.45 0.10
           30   179    5159.22 0.600      10.00    0.150     86.58        0.548 0.45 0.10
           30   180    4094.99 0.562      10.00    0.150     86.58        0.464 0.45 0.10
           30   181    3609.90 0.338      10.00    0.150     86.58        0.439 0.45 0.10
           31   182   12509.98 0.324      10.00    0.150     92.43        0.591 0.45 0.10
           31   183   12762.90 0.134      61.46    0.150     92.43        0.886 0.45 0.10
           31   184    5627.04 0.147      24.58    0.150     86.58        0.461 0.45 0.10
           31   185   10289.18 0.332      10.00    0.150     86.58        0.513 0.45 0.10
           31   186    6451.72 0.549      10.00    0.150     86.58        0.360 0.45 0.10
           32   187   31342.04 0.095      61.46    0.150     92.43        1.519 0.45 0.10
           32   188    5896.09 0.136      24.58    0.150     92.43        0.475 0.45 0.10
           32   189    3368.91 0.310      10.00    0.150     92.43        0.256 0.45 0.10
           32   190    8299.23 0.111      61.46    0.150     86.58        0.749 0.45 0.10
           32   191    4538.24 0.321      10.00    0.150     86.58        0.301 0.45 0.10
           32   192    2258.17 0.318      10.00    0.150     86.58        0.209 0.45 0.10
           32   193    2180.49 0.146      24.58    0.150     86.58        0.323 0.45 0.10
           33   194    2340.66 0.323      10.00    0.150     92.43        0.317 0.45 0.10
           33   195    3433.02 0.114      61.46    0.150     92.43        0.707 0.45 0.10
           33   196    1490.28 0.322      10.00    0.150     92.43        0.246 0.45 0.10
           33   197    1841.89 0.125      61.46    0.150     92.43        0.570 0.45 0.10
           33   198    5239.59 0.139      24.58    0.150     86.58        0.659 0.45 0.10
           33   199    6034.84 0.327      10.00    0.150     86.58        0.596 0.45 0.10
           33   200    4213.00 0.558      10.00    0.150     86.58        0.447 0.45 0.10
           33   201    4928.73 0.600      10.00    0.150     86.58        0.499 0.45 0.10
           34   202    3470.46 0.098      61.46    0.150     92.43        0.778 0.45 0.10
           34   203    2175.06 0.322      10.00    0.150     92.43        0.335 0.45 0.10
           34   204    4117.00 0.120      61.46    0.150     92.43        0.810 0.45 0.10
           34   205    2452.67 0.600      10.00    0.150     86.58        0.344 0.45 0.10
           34   206    2953.60 0.341      10.00    0.150     86.58        0.406 0.45 0.10
           34   207    3410.19 0.560      10.00    0.150     86.58        0.434 0.45 0.10
           34   208    1256.87 0.553      10.00    0.150     86.58        0.230 0.45 0.10
           34   209    1279.97 0.343      10.00    0.150     86.58        0.246 0.45 0.10
           34   210     890.59 0.600      10.00    0.150     86.58        0.191 0.45 0.10
           35   211   33569.19 0.088      61.46    0.150     92.43        1.665 0.45 0.10
           35   212    3164.44 0.303      10.00    0.150     92.43        0.257 0.45 0.10
           35   213    7861.14 0.123      61.46    0.150     92.43        0.739 0.45 0.10
           35   214    5505.82 0.327      10.00    0.150     86.58        0.352 0.45 0.10
           35   215    9357.74 0.107      61.46    0.150     86.58        0.814 0.45 0.10
           35   216    3180.93 0.144      24.58    0.150     86.58        0.374 0.45 0.10
           35   217    3985.65 0.321      10.00    0.150     86.58        0.290 0.45 0.10
           36   218   15150.54 0.103      61.46    0.150     92.43        1.698 0.45 0.10
           36   219    1563.28 0.315      10.00    0.150     86.58        0.276 0.45 0.10
           36   220    2410.61 0.119      61.46    0.150     86.58        0.656 0.45 0.10
           37   221      41.75 0.053      92.18    0.150     86.58        1.145 0.45 0.10
           37   222      30.70 0.040      92.18    0.150     71.37        1.082 0.45 0.10
           38   223   11741.00 0.074      61.46    0.150     92.43        2.001 0.45 0.10
           38   224    1548.29 0.600      10.00    0.150     86.58        0.344 0.45 0.10
           38   225    1579.87 0.116      61.46    0.150     86.58        0.669 0.45 0.10
           38   226    2354.27 0.560      10.00    0.150     86.58        0.462 0.45 0.10
           38   227    2061.56 0.339      10.00    0.150     86.58        0.434 0.45 0.10
           39   228    8567.50 0.063      61.46    0.150     98.00        0.890 0.45 0.10
           39   229   21227.54 0.081      61.46    0.150     92.43        1.348 0.45 0.10
           39   230    3740.17 0.327      10.00    0.150     86.58        0.296 0.45 0.10
           39   231    7414.78 0.104      61.46    0.150     86.58        0.774 0.45 0.10
           39   232    5384.73 0.139      24.58    0.150     86.58        0.491 0.45 0.10
           39   233    3738.69 0.310      10.00    0.150     86.58        0.298 0.45 0.10
           40   234   20430.96 0.068      61.46    0.150     98.00        1.468 0.45 0.10
           40   235   33141.34 0.095      61.46    0.150     92.43        1.948 0.45 0.10
           40   236    7806.65 0.130      61.46    0.150     86.58        0.818 0.45 0.10
           40   237    7942.94 0.324      10.00    0.150     86.58        0.535 0.45 0.10
           40   238    4706.03 0.135      24.58    0.150     86.58        0.498 0.45 0.10
           40   239    4460.70 0.324      10.00    0.150     86.58        0.363 0.45 0.10
           41   240    3576.17 0.083      61.46    0.150     92.43        0.942 0.45 0.10
           41   241    7273.41 0.102      61.46    0.150     92.43        1.344 0.45 0.10
           41   242    1210.01 0.551      10.00    0.150     86.58        0.278 0.45 0.10
           41   243    1784.57 0.129      61.46    0.150     86.58        0.660 0.45 0.10
           41   244    1807.15 0.330      10.00    0.150     86.58        0.373 0.45 0.10
           41   245    3207.17 0.325      10.00    0.150     86.58        0.552 0.45 0.10
           41   246    4397.24 0.129      61.46    0.150     86.58        0.986 0.45 0.10

         HRU CN Input Summary Table:
          Sub   HRU   Area(ha)  LULC      Soil    CN1    CN2    CN3  Wilting Point (mm H2O)  Field Capacity (mm H2O)  Saturation (mm H2O)
            1     1    5856.27  SWRN  HZMT       52.7   71.4   86.5                     5.4                     20.1                154.6
            1     2    1143.63  SWRN  ZGT        84.9   93.6   97.7                   120.7                    135.1                446.7
            1     3    2224.12  SWRN  ZGT        84.9   93.6   97.7                   120.7                    135.1                446.7
            2     4    8905.92  PAST  GSCDT      82.6   92.4   97.3                    83.0                    105.4                367.9
            2     5    8881.22  PAST  GSCDT      82.6   92.4   97.3                    83.0                    105.4                367.9
            2     6     727.55  SWRN  GSCDT      72.3   86.6   94.8                    83.0                    105.4                367.9
            2     7     335.45  SWRN  GSCDT      72.3   86.6   94.8                    83.0                    105.4                367.9
            2     8     328.12  SWRN  GSCDT      72.3   86.6   94.8                    83.0                    105.4                367.9
            2     9    1281.17  SWRN  HZMT       52.7   71.4   86.5                     5.4                     20.1                154.6
            2    10    1840.47  SWRN  ZGT        84.9   93.6   97.7                   120.7                    135.1                446.7
            2    11     988.38  SWRN  ZGT        84.9   93.6   97.7                   120.7                    135.1                446.7
            3    12    6345.53  PAST  GSCDT      82.6   92.4   97.3                    83.0                    105.4                367.9
            3    13    6655.90  PAST  GSCDT      82.6   92.4   97.3                    83.0                    105.4                367.9
            3    14    4113.10  PAST  GSCDT      82.6   92.4   97.3                    83.0                    105.4                367.9
            3    15    3221.03  SWRN  GSCDT      72.3   86.6   94.8                    83.0                    105.4                367.9
            3    16    3226.50  SWRN  GSCDT      72.3   86.6   94.8                    83.0                    105.4                367.9
            3    17    3410.35  SWRN  GSCDT      72.3   86.6   94.8                    83.0                    105.4                367.9
            3    18    2968.67  SWRN  GZCGT      84.9   93.6   97.7                     1.5                     36.0                138.0
            3    19    3716.90  SWRN  GZCGT      84.9   93.6   97.7                     1.5                     36.0                138.0
            3    20    4381.13  SWRN  GZCGT      84.9   93.6   97.7                     1.5                     36.0                138.0
            4    21     410.78  SWRN  GSCDT      72.3   86.6   94.8                    83.0                    105.4                367.9
            4    22     575.88  SWRN  GSCDT      72.3   86.6   94.8                    83.0                    105.4                367.9
            4    23     534.27  SWRN  GSCDT      72.3   86.6   94.8                    83.0                    105.4                367.9
            5    24    7535.37  PAST  GSCDT      82.6   92.4   97.3                    83.0                    105.4                367.9
            5    25    9143.00  SWRN  GSCDT      72.3   86.6   94.8                    83.0                    105.4                367.9
            5    26    4366.34  SWRN  GSCDT      72.3   86.6   94.8                    83.0                    105.4                367.9
            6    27    1549.02  PAST  GSCDT      82.6   92.4   97.3                    83.0                    105.4                367.9
            6    28    1147.50  PAST  GSCDT      82.6   92.4   97.3                    83.0                    105.4                367.9
            6    29    1421.26  SWRN  GSCDT      72.3   86.6   94.8                    83.0                    105.4                367.9
            6    30    1191.80  SWRN  GSCDT      72.3   86.6   94.8                    83.0                    105.4                367.9
            6    31    1243.14  SWRN  GSCDT      72.3   86.6   94.8                    83.0                    105.4                367.9
            7    32   13865.50  PAST  GSCDT      82.6   92.4   97.3                    83.0                    105.4                367.9
            7    33   11022.66  PAST  GSCDT      82.6   92.4   97.3                    83.0                    105.4                367.9
            7    34   18496.34  PAST  GSCDT      82.6   92.4   97.3                    83.0                    105.4                367.9
            8    35    1114.01  PAST  GSCDT      82.6   92.4   97.3                    83.0                    105.4                367.9
            8    36    1495.01  PAST  GSCDT      82.6   92.4   97.3                    83.0                    105.4                367.9
            8    37     612.87  SWRN  GSCDT      72.3   86.6   94.8                    83.0                    105.4                367.9
            8    38     892.65  SWRN  GSCDT      72.3   86.6   94.8                    83.0                    105.4                367.9
            9    39    7188.72  PAST  GSCDT      82.6   92.4   97.3                    83.0                    105.4                367.9
            9    40   11656.59  PAST  GSCDT      82.6   92.4   97.3                    83.0                    105.4                367.9
           10    41    3179.96  PAST  GSCDT      82.6   92.4   97.3                    83.0                    105.4                367.9
           10    42    3454.36  PAST  GSCDT      82.6   92.4   97.3                    83.0                    105.4                367.9
           10    43    3250.69  PAST  GSCDT      82.6   92.4   97.3                    83.0                    105.4                367.9
           10    44    3277.13  PAST  GSCDT      82.6   92.4   97.3                    83.0                    105.4                367.9
           10    45   11872.39  SWRN  GSCDT      72.3   86.6   94.8                    83.0                    105.4                367.9
           10    46   19113.95  SWRN  GSCDT      72.3   86.6   94.8                    83.0                    105.4                367.9
           11    47   14906.76  SWRN  GSCDT      72.3   86.6   94.8                    83.0                    105.4                367.9
           11    48   11748.66  SWRN  GSCDT      72.3   86.6   94.8                    83.0                    105.4                367.9
           12    49    9100.84  PAST  GSCDT      82.6   92.4   97.3                    83.0                    105.4                367.9
           12    50   11823.37  PAST  GSCDT      82.6   92.4   97.3                    83.0                    105.4                367.9
           12    51    5568.14  SWRN  GSCDT      72.3   86.6   94.8                    83.0                    105.4                367.9
           12    52    5899.54  SWRN  GSCDT      72.3   86.6   94.8                    83.0                    105.4                367.9
           12    53    5344.55  SWRN  GSCDT      72.3   86.6   94.8                    83.0                    105.4                367.9
           13    54    3022.13  SWRN  GSCDT      72.3   86.6   94.8                    83.0                    105.4                367.9
           13    55    7025.53  SWRN  GSCDT      72.3   86.6   94.8                    83.0                    105.4                367.9
           14    56    5382.28  PAST  GSCDT      82.6   92.4   97.3                    83.0                    105.4                367.9
           14    57    5206.62  PAST  GSCDT      82.6   92.4   97.3                    83.0                    105.4                367.9
           14    58   11504.87  SWRN  GSCDT      72.3   86.6   94.8                    83.0                    105.4                367.9
           14    59   10560.45  SWRN  GSCDT      72.3   86.6   94.8                    83.0                    105.4                367.9
           14    60    7939.47  SWRN  GSCDT      72.3   86.6   94.8                    83.0                    105.4                367.9
           15    61     104.63  PAST  LGCDT      82.6   92.4   97.3                   123.3                    128.8                381.3
           15    62     116.25  PAST  LGCDT      82.6   92.4   97.3                   123.3                    128.8                381.3
           15    63     316.47  SWRN  GSCDT      72.3   86.6   94.8                    83.0                    105.4                367.9
           15    64     150.08  SWRN  GSCDT      72.3   86.6   94.8                    83.0                    105.4                367.9
           15    65      94.23  SWRN  LGCDT      72.3   86.6   94.8                   123.3                    128.8                381.3
           15    66      65.53  SWRN  LGCDT      72.3   86.6   94.8                   123.3                    128.8                381.3
           15    67      87.27  SWRN  LGCDT      72.3   86.6   94.8                   123.3                    128.8                381.3
           16    68    2508.32  PAST  GSCDT      82.6   92.4   97.3                    83.0                    105.4                367.9
           16    69    1540.07  PAST  GSCDT      82.6   92.4   97.3                    83.0                    105.4                367.9
           16    70    1490.85  PAST  GSCDT      82.6   92.4   97.3                    83.0                    105.4                367.9
           16    71    5548.88  SWRN  GSCDT      72.3   86.6   94.8                    83.0                    105.4                367.9
           16    72    5097.76  SWRN  GSCDT      72.3   86.6   94.8                    83.0                    105.4                367.9
           16    73    3429.35  SWRN  GSCDT      72.3   86.6   94.8                    83.0                    105.4                367.9
           17    74    1465.86  PAST  GSCDT      82.6   92.4   97.3                    83.0                    105.4                367.9
           17    75    1345.20  PAST  GSCDT      82.6   92.4   97.3                    83.0                    105.4                367.9
           17    76    1207.74  PAST  GSCDT      82.6   92.4   97.3                    83.0                    105.4                367.9
           17    77     398.19  PAST  LGCDT      82.6   92.4   97.3                   123.3                    128.8                381.3
           17    78    1347.89  PAST  LGCDT      82.6   92.4   97.3                   123.3                    128.8                381.3
           17    79    5263.30  SWRN  GSCDT      72.3   86.6   94.8                    83.0                    105.4                367.9
           17    80    4317.66  SWRN  GSCDT      72.3   86.6   94.8                    83.0                    105.4                367.9
           17    81    5955.93  SWRN  GSCDT      72.3   86.6   94.8                    83.0                    105.4                367.9
           18    82     976.61  PAST  GSCDT      82.6   92.4   97.3                    83.0                    105.4                367.9
           18    83     944.54  PAST  GSCDT      82.6   92.4   97.3                    83.0                    105.4                367.9
           18    84    1224.83  PAST  GSCDT      82.6   92.4   97.3                    83.0                    105.4                367.9
           18    85    1076.97  PAST  GSCDT      82.6   92.4   97.3                    83.0                    105.4                367.9
           18    86     547.56  PAST  YGSCDT     82.6   92.4   97.3                   138.2                    128.9                403.3
           18    87     457.84  PAST  YGSCDT     82.6   92.4   97.3                   138.2                    128.9                403.3
           18    88     808.76  PAST  YGSCDT     82.6   92.4   97.3                   138.2                    128.9                403.3
           18    89    3258.26  SWRN  GSCDT      72.3   86.6   94.8                    83.0                    105.4                367.9
           18    90    3454.22  SWRN  GSCDT      72.3   86.6   94.8                    83.0                    105.4                367.9
           18    91    3502.38  SWRN  GSCDT      72.3   86.6   94.8                    83.0                    105.4                367.9
           19    92    1027.85  PAST  GSCDT      82.6   92.4   97.3                    83.0                    105.4                367.9
           19    93    1222.53  PAST  GSCDT      82.6   92.4   97.3                    83.0                    105.4                367.9
           19    94    1100.18  PAST  GSCDT      82.6   92.4   97.3                    83.0                    105.4                367.9
           19    95    3433.36  SWRN  GSCDT      72.3   86.6   94.8                    83.0                    105.4                367.9
           19    96    4529.50  SWRN  GSCDT      72.3   86.6   94.8                    83.0                    105.4                367.9
           20    97    1704.47  PAST  GSCDT      82.6   92.4   97.3                    83.0                    105.4                367.9
           20    98    1330.53  PAST  GSCDT      82.6   92.4   97.3                    83.0                    105.4                367.9
           20    99    2724.86  PAST  GSCDT      82.6   92.4   97.3                    83.0                    105.4                367.9
           20   100    2475.93  PAST  YGSCDT     82.6   92.4   97.3                   138.2                    128.9                403.3
           20   101    1393.27  PAST  YGSCDT     82.6   92.4   97.3                   138.2                    128.9                403.3
           20   102    1763.00  SWRN  GSCDT      72.3   86.6   94.8                    83.0                    105.4                367.9
           20   103    1337.40  SWRN  GSCDT      72.3   86.6   94.8                    83.0                    105.4                367.9
           20   104    2412.22  SWRN  GSCDT      72.3   86.6   94.8                    83.0                    105.4                367.9
           20   105    1823.67  SWRN  YGSCDT     72.3   86.6   94.8                   138.2                    128.9                403.3
           20   106    1131.22  SWRN  YGSCDT     72.3   86.6   94.8                   138.2                    128.9                403.3
           21   107    2224.78  PAST  GSCDT      82.6   92.4   97.3                    83.0                    105.4                367.9
           21   108    3741.66  PAST  GSCDT      82.6   92.4   97.3                    83.0                    105.4                367.9
           21   109    1949.47  PAST  GSCDT      82.6   92.4   97.3                    83.0                    105.4                367.9
           21   110    5002.17  SWRN  GSCDT      72.3   86.6   94.8                    83.0                    105.4                367.9
           21   111    6385.63  SWRN  GSCDT      72.3   86.6   94.8                    83.0                    105.4                367.9
           22   112    2236.02  PAST  GSCDT      82.6   92.4   97.3                    83.0                    105.4                367.9
           22   113    1452.64  PAST  GSCDT      82.6   92.4   97.3                    83.0                    105.4                367.9
           22   114    1539.06  PAST  YGSCDT     82.6   92.4   97.3                   138.2                    128.9                403.3
           22   115    1664.37  PAST  YGSCDT     82.6   92.4   97.3                   138.2                    128.9                403.3
           22   116    2459.48  PAST  YGSCDT     82.6   92.4   97.3                   138.2                    128.9                403.3
           22   117    3526.63  SWRN  GSCDT      72.3   86.6   94.8                    83.0                    105.4                367.9
           22   118    3107.84  SWRN  GSCDT      72.3   86.6   94.8                    83.0                    105.4                367.9
           22   119    2904.34  SWRN  GSCDT      72.3   86.6   94.8                    83.0                    105.4                367.9
           22   120    2432.33  SWRN  YGSCDT     72.3   86.6   94.8                   138.2                    128.9                403.3
           22   121    2376.35  SWRN  YGSCDT     72.3   86.6   94.8                   138.2                    128.9                403.3
           22   122    1613.56  SWRN  YGSCDT     72.3   86.6   94.8                   138.2                    128.9                403.3
           23   123    4377.48  PAST  GSCDT      82.6   92.4   97.3                    83.0                    105.4                367.9
           23   124    4985.05  PAST  GSCDT      82.6   92.4   97.3                    83.0                    105.4                367.9
           23   125    4855.01  PAST  GSCDT      82.6   92.4   97.3                    83.0                    105.4                367.9
           23   126   11482.00  SWRN  GSCDT      72.3   86.6   94.8                    83.0                    105.4                367.9
           23   127    9685.88  SWRN  GSCDT      72.3   86.6   94.8                    83.0                    105.4                367.9
           23   128    6221.11  SWRN  GSCDT      72.3   86.6   94.8                    83.0                    105.4                367.9
           24   129     716.84  PAST  GSCDT      82.6   92.4   97.3                    83.0                    105.4                367.9
           24   130     957.06  PAST  GSCDT      82.6   92.4   97.3                    83.0                    105.4                367.9
           24   131    1055.27  PAST  GSCDT      82.6   92.4   97.3                    83.0                    105.4                367.9
           24   132    1726.35  PAST  YGSCDT     82.6   92.4   97.3                   138.2                    128.9                403.3
           24   133    1137.10  PAST  YGSCDT     82.6   92.4   97.3                   138.2                    128.9                403.3
           24   134    1415.28  SWRN  GSCDT      72.3   86.6   94.8                    83.0                    105.4                367.9
           24   135    2008.54  SWRN  GSCDT      72.3   86.6   94.8                    83.0                    105.4                367.9
           24   136    1846.94  SWRN  GSCDT      72.3   86.6   94.8                    83.0                    105.4                367.9
           24   137    1579.36  SWRN  YGSCDT     72.3   86.6   94.8                   138.2                    128.9                403.3
           24   138    1567.62  SWRN  YGSCDT     72.3   86.6   94.8                   138.2                    128.9                403.3
           24   139    1048.57  SWRN  YGSCDT     72.3   86.6   94.8                   138.2                    128.9                403.3
           25   140    5991.18  PAST  GSCDT      82.6   92.4   97.3                    83.0                    105.4                367.9
           25   141    4164.58  PAST  GSCDT      82.6   92.4   97.3                    83.0                    105.4                367.9
           25   142    4240.90  PAST  GSCDT      82.6   92.4   97.3                    83.0                    105.4                367.9
           25   143    3962.80  SWRN  GSCDT      72.3   86.6   94.8                    83.0                    105.4                367.9
           25   144    4637.44  SWRN  GSCDT      72.3   86.6   94.8                    83.0                    105.4                367.9
           25   145    4525.28  SWRN  GSCDT      72.3   86.6   94.8                    83.0                    105.4                367.9
           26   146    4512.00  PAST  GSCDT      82.6   92.4   97.3                    83.0                    105.4                367.9
           26   147    8018.18  PAST  GSCDT      82.6   92.4   97.3                    83.0                    105.4                367.9
           26   148    7115.77  PAST  GSCDT      82.6   92.4   97.3                    83.0                    105.4                367.9
           26   149    7720.85  SWRN  GSCDT      72.3   86.6   94.8                    83.0                    105.4                367.9
           26   150    7525.89  SWRN  GSCDT      72.3   86.6   94.8                    83.0                    105.4                367.9
           26   151    7837.70  SWRN  GSCDT      72.3   86.6   94.8                    83.0                    105.4                367.9
           26   152    1491.54  SWRN  YGSCDT     72.3   86.6   94.8                   138.2                    128.9                403.3
           26   153    2739.39  SWRN  YGSCDT     72.3   86.6   94.8                   138.2                    128.9                403.3
           26   154    2808.68  SWRN  YGSCDT     72.3   86.6   94.8                   138.2                    128.9                403.3
           27   155   17050.50  PAST  GSCDT      82.6   92.4   97.3                    83.0                    105.4                367.9
           27   156    7163.84  PAST  GSCDT      82.6   92.4   97.3                    83.0                    105.4                367.9
           27   157    6884.59  SWRN  GSCDT      72.3   86.6   94.8                    83.0                    105.4                367.9
           27   158    6685.58  SWRN  GSCDT      72.3   86.6   94.8                    83.0                    105.4                367.9
           28   159     712.57  PAST  GSCDT      82.6   92.4   97.3                    83.0                    105.4                367.9
           28   160     971.21  PAST  GSCDT      82.6   92.4   97.3                    83.0                    105.4                367.9
           28   161     853.56  PAST  GSCDT      82.6   92.4   97.3                    83.0                    105.4                367.9
           28   162     858.76  PAST  YGSCDT     82.6   92.4   97.3                   138.2                    128.9                403.3
           28   163    1695.87  PAST  YGSCDT     82.6   92.4   97.3                   138.2                    128.9                403.3
           28   164    1132.03  PAST  YGSCDT     82.6   92.4   97.3                   138.2                    128.9                403.3
           28   165    1479.36  SWRN  GSCDT      72.3   86.6   94.8                    83.0                    105.4                367.9
           28   166    1801.50  SWRN  GSCDT      72.3   86.6   94.8                    83.0                    105.4                367.9
           28   167    1475.23  SWRN  GSCDT      72.3   86.6   94.8                    83.0                    105.4                367.9
           28   168    1572.52  SWRN  YGSCDT     72.3   86.6   94.8                   138.2                    128.9                403.3
           28   169    2166.32  SWRN  YGSCDT     72.3   86.6   94.8                   138.2                    128.9                403.3
           28   170    2569.63  SWRN  YGSCDT     72.3   86.6   94.8                   138.2                    128.9                403.3
           29   171    9964.82  PAST  GSCDT      82.6   92.4   97.3                    83.0                    105.4                367.9
           29   172    4684.52  PAST  GSCDT      82.6   92.4   97.3                    83.0                    105.4                367.9
           29   173    4146.43  SWRN  GSCDT      72.3   86.6   94.8                    83.0                    105.4                367.9
           29   174    3334.90  SWRN  GSCDT      72.3   86.6   94.8                    83.0                    105.4                367.9
           29   175    3003.02  SWRN  GSCDT      72.3   86.6   94.8                    83.0                    105.4                367.9
           30   176    2935.30  PAST  GSCDT      82.6   92.4   97.3                    83.0                    105.4                367.9
           30   177    2108.43  PAST  GSCDT      82.6   92.4   97.3                    83.0                    105.4                367.9
           30   178    1684.15  PAST  GSCDT      82.6   92.4   97.3                    83.0                    105.4                367.9
           30   179    5159.22  SWRN  GSCDT      72.3   86.6   94.8                    83.0                    105.4                367.9
           30   180    4094.99  SWRN  GSCDT      72.3   86.6   94.8                    83.0                    105.4                367.9
           30   181    3609.90  SWRN  GSCDT      72.3   86.6   94.8                    83.0                    105.4                367.9
           31   182   12509.98  PAST  GSCDT      82.6   92.4   97.3                    83.0                    105.4                367.9
           31   183   12762.90  PAST  GSCDT      82.6   92.4   97.3                    83.0                    105.4                367.9
           31   184    5627.04  SWRN  GSCDT      72.3   86.6   94.8                    83.0                    105.4                367.9
           31   185   10289.18  SWRN  GSCDT      72.3   86.6   94.8                    83.0                    105.4                367.9
           31   186    6451.72  SWRN  GSCDT      72.3   86.6   94.8                    83.0                    105.4                367.9
           32   187   31342.04  PAST  GSCDT      82.6   92.4   97.3                    83.0                    105.4                367.9
           32   188    5896.09  PAST  YGSCDT     82.6   92.4   97.3                   138.2                    128.9                403.3
           32   189    3368.91  PAST  YGSCDT     82.6   92.4   97.3                   138.2                    128.9                403.3
           32   190    8299.23  SWRN  GSCDT      72.3   86.6   94.8                    83.0                    105.4                367.9
           32   191    4538.24  SWRN  GSCDT      72.3   86.6   94.8                    83.0                    105.4                367.9
           32   192    2258.17  SWRN  YGSCDT     72.3   86.6   94.8                   138.2                    128.9                403.3
           32   193    2180.49  SWRN  YGSCDT     72.3   86.6   94.8                   138.2                    128.9                403.3
           33   194    2340.66  PAST  GSCDT      82.6   92.4   97.3                    83.0                    105.4                367.9
           33   195    3433.02  PAST  GSCDT      82.6   92.4   97.3                    83.0                    105.4                367.9
           33   196    1490.28  PAST  YGSCDT     82.6   92.4   97.3                   138.2                    128.9                403.3
           33   197    1841.89  PAST  YGSCDT     82.6   92.4   97.3                   138.2                    128.9                403.3
           33   198    5239.59  SWRN  GSCDT      72.3   86.6   94.8                    83.0                    105.4                367.9
           33   199    6034.84  SWRN  GSCDT      72.3   86.6   94.8                    83.0                    105.4                367.9
           33   200    4213.00  SWRN  GSCDT      72.3   86.6   94.8                    83.0                    105.4                367.9
           33   201    4928.73  SWRN  GSCDT      72.3   86.6   94.8                    83.0                    105.4                367.9
           34   202    3470.46  PAST  GSCDT      82.6   92.4   97.3                    83.0                    105.4                367.9
           34   203    2175.06  PAST  YGSCDT     82.6   92.4   97.3                   138.2                    128.9                403.3
           34   204    4117.00  PAST  YGSCDT     82.6   92.4   97.3                   138.2                    128.9                403.3
           34   205    2452.67  SWRN  GSCDT      72.3   86.6   94.8                    83.0                    105.4                367.9
           34   206    2953.60  SWRN  GSCDT      72.3   86.6   94.8                    83.0                    105.4                367.9
           34   207    3410.19  SWRN  GSCDT      72.3   86.6   94.8                    83.0                    105.4                367.9
           34   208    1256.87  SWRN  YGSCDT     72.3   86.6   94.8                   138.2                    128.9                403.3
           34   209    1279.97  SWRN  YGSCDT     72.3   86.6   94.8                   138.2                    128.9                403.3
           34   210     890.59  SWRN  YGSCDT     72.3   86.6   94.8                   138.2                    128.9                403.3
           35   211   33569.19  PAST  GSCDT      82.6   92.4   97.3                    83.0                    105.4                367.9
           35   212    3164.44  PAST  YGSCDT     82.6   92.4   97.3                   138.2                    128.9                403.3
           35   213    7861.14  PAST  YGSCDT     82.6   92.4   97.3                   138.2                    128.9                403.3
           35   214    5505.82  SWRN  GSCDT      72.3   86.6   94.8                    83.0                    105.4                367.9
           35   215    9357.74  SWRN  GSCDT      72.3   86.6   94.8                    83.0                    105.4                367.9
           35   216    3180.93  SWRN  YGSCDT     72.3   86.6   94.8                   138.2                    128.9                403.3
           35   217    3985.65  SWRN  YGSCDT     72.3   86.6   94.8                   138.2                    128.9                403.3
           36   218   15150.54  PAST  GSCDT      82.6   92.4   97.3                    83.0                    105.4                367.9
           36   219    1563.28  SWRN  GSCDT      72.3   86.6   94.8                    83.0                    105.4                367.9
           36   220    2410.61  SWRN  GSCDT      72.3   86.6   94.8                    83.0                    105.4                367.9
           37   221      41.75  SWRN  GSCDT      72.3   86.6   94.8                    83.0                    105.4                367.9
           37   222      30.70  SWRN  HMFST      52.7   71.4   86.5                    25.5                     44.6                377.4
           38   223   11741.00  PAST  GSCDT      82.6   92.4   97.3                    83.0                    105.4                367.9
           38   224    1548.29  SWRN  GSCDT      72.3   86.6   94.8                    83.0                    105.4                367.9
           38   225    1579.87  SWRN  GSCDT      72.3   86.6   94.8                    83.0                    105.4                367.9
           38   226    2354.27  SWRN  GSCDT      72.3   86.6   94.8                    83.0                    105.4                367.9
           38   227    2061.56  SWRN  GSCDT      72.3   86.6   94.8                    83.0                    105.4                367.9
           39   228    8567.50  PAST  CDZZT      94.9   98.0   99.3                   120.6                    127.7                401.8
           39   229   21227.54  PAST  GSCDT      82.6   92.4   97.3                    83.0                    105.4                367.9
           39   230    3740.17  SWRN  GSCDT      72.3   86.6   94.8                    83.0                    105.4                367.9
           39   231    7414.78  SWRN  GSCDT      72.3   86.6   94.8                    83.0                    105.4                367.9
           39   232    5384.73  SWRN  YGSCDT     72.3   86.6   94.8                   138.2                    128.9                403.3
           39   233    3738.69  SWRN  YGSCDT     72.3   86.6   94.8                   138.2                    128.9                403.3
           40   234   20430.96  PAST  CDZZT      94.9   98.0   99.3                   120.6                    127.7                401.8
           40   235   33141.34  PAST  GSCDT      82.6   92.4   97.3                    83.0                    105.4                367.9
           40   236    7806.65  SWRN  GSCDT      72.3   86.6   94.8                    83.0                    105.4                367.9
           40   237    7942.94  SWRN  GSCDT      72.3   86.6   94.8                    83.0                    105.4                367.9
           40   238    4706.03  SWRN  YGSCDT     72.3   86.6   94.8                   138.2                    128.9                403.3
           40   239    4460.70  SWRN  YGSCDT     72.3   86.6   94.8                   138.2                    128.9                403.3
           41   240    3576.17  PAST  GSCDT      82.6   92.4   97.3                    83.0                    105.4                367.9
           41   241    7273.41  PAST  YGSCDT     82.6   92.4   97.3                   138.2                    128.9                403.3
           41   242    1210.01  SWRN  GSCDT      72.3   86.6   94.8                    83.0                    105.4                367.9
           41   243    1784.57  SWRN  GSCDT      72.3   86.6   94.8                    83.0                    105.4                367.9
           41   244    1807.15  SWRN  GSCDT      72.3   86.6   94.8                    83.0                    105.4                367.9
           41   245    3207.17  SWRN  YGSCDT     72.3   86.6   94.8                   138.2                    128.9                403.3
           41   246    4397.24  SWRN  YGSCDT     72.3   86.6   94.8                   138.2                    128.9                403.3

         HRU Input Summary Table 2:
          Sub   HRU   Area(ha)         SoilName Hydgrp MaxRtDpth(mm) Albedo USLE_K USLE_P USLE_LS ProfileAWC(mm) IniSoilH2O(mm)
            1     1    5856.27 HZMT               B           400.00   0.22   0.30   1.00    1.51     20.106          3.016
            1     2    1143.63 ZGT                D          1100.00   0.22   0.35   1.00    4.70    135.065         20.260
            1     3    2224.12 ZGT                D          1100.00   0.22   0.35   1.00    2.86    135.065         20.260
            2     4    8905.92 GSCDT              C           700.00   0.19   0.28   1.00    3.03    105.391         15.809
            2     5    8881.22 GSCDT              C           700.00   0.19   0.28   1.00    4.94    105.391         15.809
            2     6     727.55 GSCDT              C           700.00   0.19   0.28   1.00    4.97    105.391         15.809
            2     7     335.45 GSCDT              C           700.00   0.19   0.28   1.00   10.51    105.391         15.809
            2     8     328.12 GSCDT              C           700.00   0.19   0.28   1.00    2.36    105.391         15.809
            2     9    1281.17 HZMT               B           400.00   0.22   0.30   1.00    1.73     20.106          3.016
            2    10    1840.47 ZGT                D          1100.00   0.22   0.35   1.00    2.51    135.065         20.260
            2    11     988.38 ZGT                D          1100.00   0.22   0.35   1.00    4.59    135.065         20.260
            3    12    6345.53 GSCDT              C           700.00   0.19   0.28   1.00    5.30    105.391         15.809
            3    13    6655.90 GSCDT              C           700.00   0.19   0.28   1.00   10.95    105.391         15.809
            3    14    4113.10 GSCDT              C           700.00   0.19   0.28   1.00   12.31    105.391         15.809
            3    15    3221.03 GSCDT              C           700.00   0.19   0.28   1.00    5.33    105.391         15.809
            3    16    3226.50 GSCDT              C           700.00   0.19   0.28   1.00   12.31    105.391         15.809
            3    17    3410.35 GSCDT              C           700.00   0.19   0.28   1.00   11.05    105.391         15.809
            3    18    2968.67 GZCGT              D           100.00   0.20   0.10   1.00    5.35     36.017          5.403
            3    19    3716.90 GZCGT              D           100.00   0.20   0.10   1.00   11.17     36.017          5.403
            3    20    4381.13 GZCGT              D           100.00   0.20   0.10   1.00   12.31     36.017          5.403
            4    21     410.78 GSCDT              C           700.00   0.19   0.28   1.00   12.31    105.391         15.809
            4    22     575.88 GSCDT              C           700.00   0.19   0.28   1.00   11.01    105.391         15.809
            4    23     534.27 GSCDT              C           700.00   0.19   0.28   1.00    5.27    105.391         15.809
            5    24    7535.37 GSCDT              C           700.00   0.19   0.28   1.00    2.58    105.391         15.809
            5    25    9143.00 GSCDT              C           700.00   0.19   0.28   1.00    2.51    105.391         15.809
            5    26    4366.34 GSCDT              C           700.00   0.19   0.28   1.00    4.99    105.391         15.809
            6    27    1549.02 GSCDT              C           700.00   0.19   0.28   1.00    5.13    105.391         15.809
            6    28    1147.50 GSCDT              C           700.00   0.19   0.28   1.00   10.82    105.391         15.809
            6    29    1421.26 GSCDT              C           700.00   0.19   0.28   1.00   11.08    105.391         15.809
            6    30    1191.80 GSCDT              C           700.00   0.19   0.28   1.00    5.44    105.391         15.809
            6    31    1243.14 GSCDT              C           700.00   0.19   0.28   1.00   12.31    105.391         15.809
            7    32   13865.50 GSCDT              C           700.00   0.19   0.28   1.00    3.33    105.391         15.809
            7    33   11022.66 GSCDT              C           700.00   0.19   0.28   1.00   10.79    105.391         15.809
            7    34   18496.34 GSCDT              C           700.00   0.19   0.28   1.00    4.97    105.391         15.809
            8    35    1114.01 GSCDT              C           700.00   0.19   0.28   1.00    4.83    105.391         15.809
            8    36    1495.01 GSCDT              C           700.00   0.19   0.28   1.00    3.11    105.391         15.809
            8    37     612.87 GSCDT              C           700.00   0.19   0.28   1.00    5.02    105.391         15.809
            8    38     892.65 GSCDT              C           700.00   0.19   0.28   1.00    2.10    105.391         15.809
            9    39    7188.72 GSCDT              C           700.00   0.19   0.28   1.00    4.67    105.391         15.809
            9    40   11656.59 GSCDT              C           700.00   0.19   0.28   1.00    3.11    105.391         15.809
           10    41    3179.96 GSCDT              C           700.00   0.19   0.28   1.00    2.06    105.391         15.809
           10    42    3454.36 GSCDT              C           700.00   0.19   0.28   1.00    5.08    105.391         15.809
           10    43    3250.69 GSCDT              C           700.00   0.19   0.28   1.00   11.11    105.391         15.809
           10    44    3277.13 GSCDT              C           700.00   0.19   0.28   1.00   12.31    105.391         15.809
           10    45   11872.39 GSCDT              C           700.00   0.19   0.28   1.00   11.37    105.391         15.809
           10    46   19113.95 GSCDT              C           700.00   0.19   0.28   1.00   12.31    105.391         15.809
           11    47   14906.76 GSCDT              C           700.00   0.19   0.28   1.00   12.31    105.391         15.809
           11    48   11748.66 GSCDT              C           700.00   0.19   0.28   1.00   11.30    105.391         15.809
           12    49    9100.84 GSCDT              C           700.00   0.19   0.28   1.00    4.91    105.391         15.809
           12    50   11823.37 GSCDT              C           700.00   0.19   0.28   1.00    2.86    105.391         15.809
           12    51    5568.14 GSCDT              C           700.00   0.19   0.28   1.00   12.31    105.391         15.809
           12    52    5899.54 GSCDT              C           700.00   0.19   0.28   1.00   11.17    105.391         15.809
           12    53    5344.55 GSCDT              C           700.00   0.19   0.28   1.00    5.21    105.391         15.809
           13    54    3022.13 GSCDT              C           700.00   0.19   0.28   1.00   11.40    105.391         15.809
           13    55    7025.53 GSCDT              C           700.00   0.19   0.28   1.00   12.31    105.391         15.809
           14    56    5382.28 GSCDT              C           700.00   0.19   0.28   1.00    3.33    105.391         15.809
           14    57    5206.62 GSCDT              C           700.00   0.19   0.28   1.00    4.83    105.391         15.809
           14    58   11504.87 GSCDT              C           700.00   0.19   0.28   1.00    5.19    105.391         15.809
           14    59   10560.45 GSCDT              C           700.00   0.19   0.28   1.00   10.98    105.391         15.809
           14    60    7939.47 GSCDT              C           700.00   0.19   0.28   1.00   12.31    105.391         15.809
           15    61     104.63 LGCDT              C          1100.00   0.21   0.21   1.00    3.24    128.823         19.323
           15    62     116.25 LGCDT              C          1100.00   0.21   0.21   1.00    4.88    128.823         19.323
           15    63     316.47 GSCDT              C           700.00   0.19   0.28   1.00   12.31    105.391         15.809
           15    64     150.08 GSCDT              C           700.00   0.19   0.28   1.00   11.52    105.391         15.809
           15    65      94.23 LGCDT              C          1100.00   0.21   0.21   1.00    3.20    128.823         19.323
           15    66      65.53 LGCDT              C          1100.00   0.21   0.21   1.00    4.86    128.823         19.323
           15    67      87.27 LGCDT              C          1100.00   0.21   0.21   1.00   12.31    128.823         19.323
           16    68    2508.32 GSCDT              C           700.00   0.19   0.28   1.00    5.02    105.391         15.809
           16    69    1540.07 GSCDT              C           700.00   0.19   0.28   1.00    2.09    105.391         15.809
           16    70    1490.85 GSCDT              C           700.00   0.19   0.28   1.00   10.79    105.391         15.809
           16    71    5548.88 GSCDT              C           700.00   0.19   0.28   1.00    5.24    105.391         15.809
           16    72    5097.76 GSCDT              C           700.00   0.19   0.28   1.00   10.98    105.391         15.809
           16    73    3429.35 GSCDT              C           700.00   0.19   0.28   1.00   12.31    105.391         15.809
           17    74    1465.86 GSCDT              C           700.00   0.19   0.28   1.00    5.16    105.391         15.809
           17    75    1345.20 GSCDT              C           700.00   0.19   0.28   1.00   11.01    105.391         15.809
           17    76    1207.74 GSCDT              C           700.00   0.19   0.28   1.00   12.31    105.391         15.809
           17    77     398.19 LGCDT              C          1100.00   0.21   0.21   1.00    4.48    128.823         19.323
           17    78    1347.89 LGCDT              C          1100.00   0.21   0.21   1.00    2.39    128.823         19.323
           17    79    5263.30 GSCDT              C           700.00   0.19   0.28   1.00   11.14    105.391         15.809
           17    80    4317.66 GSCDT              C           700.00   0.19   0.28   1.00    5.35    105.391         15.809
           17    81    5955.93 GSCDT              C           700.00   0.19   0.28   1.00   12.31    105.391         15.809
           18    82     976.61 GSCDT              C           700.00   0.19   0.28   1.00   12.31    105.391         15.809
           18    83     944.54 GSCDT              C           700.00   0.19   0.28   1.00    3.24    105.391         15.809
           18    84    1224.83 GSCDT              C           700.00   0.19   0.28   1.00    5.13    105.391         15.809
           18    85    1076.97 GSCDT              C           700.00   0.19   0.28   1.00   11.05    105.391         15.809
           18    86     547.56 YGSCDT             C          1050.00   0.18   0.27   1.00   10.86    128.925         19.339
           18    87     457.84 YGSCDT             C          1050.00   0.18   0.27   1.00    2.22    128.925         19.339
           18    88     808.76 YGSCDT             C          1050.00   0.18   0.27   1.00    5.05    128.925         19.339
           18    89    3258.26 GSCDT              C           700.00   0.19   0.28   1.00    5.24    105.391         15.809
           18    90    3454.22 GSCDT              C           700.00   0.19   0.28   1.00   11.08    105.391         15.809
           18    91    3502.38 GSCDT              C           700.00   0.19   0.28   1.00   12.31    105.391         15.809
           19    92    1027.85 GSCDT              C           700.00   0.19   0.28   1.00   12.31    105.391         15.809
           19    93    1222.53 GSCDT              C           700.00   0.19   0.28   1.00    5.16    105.391         15.809
           19    94    1100.18 GSCDT              C           700.00   0.19   0.28   1.00   11.11    105.391         15.809
           19    95    3433.36 GSCDT              C           700.00   0.19   0.28   1.00   11.33    105.391         15.809
           19    96    4529.50 GSCDT              C           700.00   0.19   0.28   1.00   12.31    105.391         15.809
           20    97    1704.47 GSCDT              C           700.00   0.19   0.28   1.00    2.09    105.391         15.809
           20    98    1330.53 GSCDT              C           700.00   0.19   0.28   1.00   10.60    105.391         15.809
           20    99    2724.86 GSCDT              C           700.00   0.19   0.28   1.00    4.97    105.391         15.809
           20   100    2475.93 YGSCDT             C          1050.00   0.18   0.27   1.00    4.91    128.925         19.339
           20   101    1393.27 YGSCDT             C          1050.00   0.18   0.27   1.00    2.33    128.925         19.339
           20   102    1763.00 GSCDT              C           700.00   0.19   0.28   1.00   10.95    105.391         15.809
           20   103    1337.40 GSCDT              C           700.00   0.19   0.28   1.00   12.31    105.391         15.809
           20   104    2412.22 GSCDT              C           700.00   0.19   0.28   1.00    5.10    105.391         15.809
           20   105    1823.67 YGSCDT             C          1050.00   0.18   0.27   1.00    5.13    128.925         19.339
           20   106    1131.22 YGSCDT             C          1050.00   0.18   0.27   1.00   10.76    128.925         19.339
           21   107    2224.78 GSCDT              C           700.00   0.19   0.28   1.00    2.17    105.391         15.809
           21   108    3741.66 GSCDT              C           700.00   0.19   0.28   1.00    5.02    105.391         15.809
           21   109    1949.47 GSCDT              C           700.00   0.19   0.28   1.00   10.60    105.391         15.809
           21   110    5002.17 GSCDT              C           700.00   0.19   0.28   1.00   10.79    105.391         15.809
           21   111    6385.63 GSCDT              C           700.00   0.19   0.28   1.00    5.21    105.391         15.809
           22   112    2236.02 GSCDT              C           700.00   0.19   0.28   1.00    5.05    105.391         15.809
           22   113    1452.64 GSCDT              C           700.00   0.19   0.28   1.00   10.82    105.391         15.809
           22   114    1539.06 YGSCDT             C          1050.00   0.18   0.27   1.00    2.09    128.925         19.339
           22   115    1664.37 YGSCDT             C          1050.00   0.18   0.27   1.00   10.79    128.925         19.339
           22   116    2459.48 YGSCDT             C          1050.00   0.18   0.27   1.00    5.05    128.925         19.339
           22   117    3526.63 GSCDT              C           700.00   0.19   0.28   1.00   11.11    105.391         15.809
           22   118    3107.84 GSCDT              C           700.00   0.19   0.28   1.00    5.33    105.391         15.809
           22   119    2904.34 GSCDT              C           700.00   0.19   0.28   1.00   12.31    105.391         15.809
           22   120    2432.33 YGSCDT             C          1050.00   0.18   0.27   1.00   11.05    128.925         19.339
           22   121    2376.35 YGSCDT             C          1050.00   0.18   0.27   1.00    5.30    128.925         19.339
           22   122    1613.56 YGSCDT             C          1050.00   0.18   0.27   1.00   12.31    128.925         19.339
           23   123    4377.48 GSCDT              C           700.00   0.19   0.28   1.00   12.31    105.391         15.809
           23   124    4985.05 GSCDT              C           700.00   0.19   0.28   1.00    5.10    105.391         15.809
           23   125    4855.01 GSCDT              C           700.00   0.19   0.28   1.00   11.17    105.391         15.809
           23   126   11482.00 GSCDT              C           700.00   0.19   0.28   1.00   12.31    105.391         15.809
           23   127    9685.88 GSCDT              C           700.00   0.19   0.28   1.00   11.33    105.391         15.809
           23   128    6221.11 GSCDT              C           700.00   0.19   0.28   1.00    5.41    105.391         15.809
           24   129     716.84 GSCDT              C           700.00   0.19   0.28   1.00   10.82    105.391         15.809
           24   130     957.06 GSCDT              C           700.00   0.19   0.28   1.00    2.01    105.391         15.809
           24   131    1055.27 GSCDT              C           700.00   0.19   0.28   1.00    4.97    105.391         15.809
           24   132    1726.35 YGSCDT             C          1050.00   0.18   0.27   1.00    5.08    128.925         19.339
           24   133    1137.10 YGSCDT             C          1050.00   0.18   0.27   1.00   10.98    128.925         19.339
           24   134    1415.28 GSCDT              C           700.00   0.19   0.28   1.00    5.35    105.391         15.809
           24   135    2008.54 GSCDT              C           700.00   0.19   0.28   1.00   11.30    105.391         15.809
           24   136    1846.94 GSCDT              C           700.00   0.19   0.28   1.00   12.31    105.391         15.809
           24   137    1579.36 YGSCDT             C          1050.00   0.18   0.27   1.00   11.30    128.925         19.339
           24   138    1567.62 YGSCDT             C          1050.00   0.18   0.27   1.00   12.31    128.925         19.339
           24   139    1048.57 YGSCDT             C          1050.00   0.18   0.27   1.00    5.38    128.925         19.339
           25   140    5991.18 GSCDT              C           700.00   0.19   0.28   1.00    5.02    105.391         15.809
           25   141    4164.58 GSCDT              C           700.00   0.19   0.28   1.00    2.04    105.391         15.809
           25   142    4240.90 GSCDT              C           700.00   0.19   0.28   1.00   10.95    105.391         15.809
           25   143    3962.80 GSCDT              C           700.00   0.19   0.28   1.00    5.21    105.391         15.809
           25   144    4637.44 GSCDT              C           700.00   0.19   0.28   1.00   12.31    105.391         15.809
           25   145    4525.28 GSCDT              C           700.00   0.19   0.28   1.00   11.24    105.391         15.809
           26   146    4512.00 GSCDT              C           700.00   0.19   0.28   1.00   10.86    105.391         15.809
           26   147    8018.18 GSCDT              C           700.00   0.19   0.28   1.00    4.88    105.391         15.809
           26   148    7115.77 GSCDT              C           700.00   0.19   0.28   1.00    1.96    105.391         15.809
           26   149    7720.85 GSCDT              C           700.00   0.19   0.28   1.00    5.21    105.391         15.809
           26   150    7525.89 GSCDT              C           700.00   0.19   0.28   1.00   12.31    105.391         15.809
           26   151    7837.70 GSCDT              C           700.00   0.19   0.28   1.00   11.14    105.391         15.809
           26   152    1491.54 YGSCDT             C          1050.00   0.18   0.27   1.00    5.47    128.925         19.339
           26   153    2739.39 YGSCDT             C          1050.00   0.18   0.27   1.00   11.37    128.925         19.339
           26   154    2808.68 YGSCDT             C          1050.00   0.18   0.27   1.00   12.31    128.925         19.339
[...]
           22   118    3107.84        22.644         0.037   1497.233   0.102       38.912  0.400    0.000     0.000
           22   119    2904.34        22.644         0.037   1497.233   0.102       38.912  0.400    0.000     0.000
           22   120    2432.33        22.644         0.037   1497.233   0.102       38.912  0.400    0.000     0.000
           22   121    2376.35        22.644         0.037   1497.233   0.102       38.912  0.400    0.000     0.000
           22   122    1613.56        22.644         0.037   1497.233   0.102       38.912  0.400    0.000     0.000
           23   123    4377.48        22.644         0.037   1497.233   0.102       38.912  0.400    0.000     0.000
           23   124    4985.05        22.644         0.037   1497.233   0.102       38.912  0.400    0.000     0.000
           23   125    4855.01        22.644         0.037   1497.233   0.102       38.912  0.400    0.000     0.000
           23   126   11482.00        22.644         0.037   1497.233   0.102       38.912  0.400    0.000     0.000
           23   127    9685.88        22.644         0.037   1497.233   0.102       38.912  0.400    0.000     0.000
           23   128    6221.11        22.644         0.037   1497.233   0.102       38.912  0.400    0.000     0.000
           24   129     716.84        22.644         0.037   1497.233   0.102       38.912  0.400    0.000     0.000
           24   130     957.06        22.644         0.037   1497.233   0.102       38.912  0.400    0.000     0.000
           24   131    1055.27        22.644         0.037   1497.233   0.102       38.912  0.400    0.000     0.000
           24   132    1726.35        22.644         0.037   1497.233   0.102       38.912  0.400    0.000     0.000
           24   133    1137.10        22.644         0.037   1497.233   0.102       38.912  0.400    0.000     0.000
           24   134    1415.28        22.644         0.037   1497.233   0.102       38.912  0.400    0.000     0.000
           24   135    2008.54        22.644         0.037   1497.233   0.102       38.912  0.400    0.000     0.000
           24   136    1846.94        22.644         0.037   1497.233   0.102       38.912  0.400    0.000     0.000
           24   137    1579.36        22.644         0.037   1497.233   0.102       38.912  0.400    0.000     0.000
           24   138    1567.62        22.644         0.037   1497.233   0.102       38.912  0.400    0.000     0.000
           24   139    1048.57        22.644         0.037   1497.233   0.102       38.912  0.400    0.000     0.000
           25   140    5991.18        22.644         0.037   1497.233   0.102       38.912  0.400    0.000     0.000
           25   141    4164.58        22.644         0.037   1497.233   0.102       38.912  0.400    0.000     0.000
           25   142    4240.90        22.644         0.037   1497.233   0.102       38.912  0.400    0.000     0.000
           25   143    3962.80        22.644         0.037   1497.233   0.102       38.912  0.400    0.000     0.000
           25   144    4637.44        22.644         0.037   1497.233   0.102       38.912  0.400    0.000     0.000
           25   145    4525.28        22.644         0.037   1497.233   0.102       38.912  0.400    0.000     0.000
           26   146    4512.00        22.644         0.037   1497.233   0.102       38.912  0.400    0.000     0.000
           26   147    8018.18        22.644         0.037   1497.233   0.102       38.912  0.400    0.000     0.000
           26   148    7115.77        22.644         0.037   1497.233   0.102       38.912  0.400    0.000     0.000
           26   149    7720.85        22.644         0.037   1497.233   0.102       38.912  0.400    0.000     0.000
           26   150    7525.89        22.644         0.037   1497.233   0.102       38.912  0.400    0.000     0.000
           26   151    7837.70        22.644         0.037   1497.233   0.102       38.912  0.400    0.000     0.000
           26   152    1491.54        22.644         0.037   1497.233   0.102       38.912  0.400    0.000     0.000
           26   153    2739.39        22.644         0.037   1497.233   0.102       38.912  0.400    0.000     0.000
           26   154    2808.68        22.644         0.037   1497.233   0.102       38.912  0.400    0.000     0.000
           27   155   17050.50        22.644         0.037   1497.233   0.102       38.912  0.400    0.000     0.000
           27   156    7163.84        22.644         0.037   1497.233   0.102       38.912  0.400    0.000     0.000
           27   157    6884.59        22.644         0.037   1497.233   0.102       38.912  0.400    0.000     0.000
           27   158    6685.58        22.644         0.037   1497.233   0.102       38.912  0.400    0.000     0.000
           28   159     712.57        22.644         0.037   1497.233   0.102       38.912  0.400    0.000     0.000
           28   160     971.21        22.644         0.037   1497.233   0.102       38.912  0.400    0.000     0.000
           28   161     853.56        22.644         0.037   1497.233   0.102       38.912  0.400    0.000     0.000
           28   162     858.76        22.644         0.037   1497.233   0.102       38.912  0.400    0.000     0.000
           28   163    1695.87        22.644         0.037   1497.233   0.102       38.912  0.400    0.000     0.000
           28   164    1132.03        22.644         0.037   1497.233   0.102       38.912  0.400    0.000     0.000
           28   165    1479.36        22.644         0.037   1497.233   0.102       38.912  0.400    0.000     0.000
           28   166    1801.50        22.644         0.037   1497.233   0.102       38.912  0.400    0.000     0.000
           28   167    1475.23        22.644         0.037   1497.233   0.102       38.912  0.400    0.000     0.000
           28   168    1572.52        22.644         0.037   1497.233   0.102       38.912  0.400    0.000     0.000
           28   169    2166.32        22.644         0.037   1497.233   0.102       38.912  0.400    0.000     0.000
           28   170    2569.63        22.644         0.037   1497.233   0.102       38.912  0.400    0.000     0.000
           29   171    9964.82        22.644         0.037   1497.233   0.102       38.912  0.400    0.000     0.000
           29   172    4684.52        22.644         0.037   1497.233   0.102       38.912  0.400    0.000     0.000
           29   173    4146.43        22.644         0.037   1497.233   0.102       38.912  0.400    0.000     0.000
           29   174    3334.90        22.644         0.037   1497.233   0.102       38.912  0.400    0.000     0.000
           29   175    3003.02        22.644         0.037   1497.233   0.102       38.912  0.400    0.000     0.000
           30   176    2935.30        22.644         0.037   1497.233   0.102       38.912  0.400    0.000     0.000
           30   177    2108.43        22.644         0.037   1497.233   0.102       38.912  0.400    0.000     0.000
           30   178    1684.15        22.644         0.037   1497.233   0.102       38.912  0.400    0.000     0.000
           30   179    5159.22        22.644         0.037   1497.233   0.102       38.912  0.400    0.000     0.000
           30   180    4094.99        22.644         0.037   1497.233   0.102       38.912  0.400    0.000     0.000
           30   181    3609.90        22.644         0.037   1497.233   0.102       38.912  0.400    0.000     0.000
           31   182   12509.98        22.644         0.037   1497.233   0.102       38.912  0.400    0.000     0.000
           31   183   12762.90        22.644         0.037   1497.233   0.102       38.912  0.400    0.000     0.000
           31   184    5627.04        22.644         0.037   1497.233   0.102       38.912  0.400    0.000     0.000
           31   185   10289.18        22.644         0.037   1497.233   0.102       38.912  0.400    0.000     0.000
           31   186    6451.72        22.644         0.037   1497.233   0.102       38.912  0.400    0.000     0.000
           32   187   31342.04        22.644         0.037   1497.233   0.102       38.912  0.400    0.000     0.000
           32   188    5896.09        22.644         0.037   1497.233   0.102       38.912  0.400    0.000     0.000
           32   189    3368.91        22.644         0.037   1497.233   0.102       38.912  0.400    0.000     0.000
           32   190    8299.23        22.644         0.037   1497.233   0.102       38.912  0.400    0.000     0.000
           32   191    4538.24        22.644         0.037   1497.233   0.102       38.912  0.400    0.000     0.000
           32   192    2258.17        22.644         0.037   1497.233   0.102       38.912  0.400    0.000     0.000
           32   193    2180.49        22.644         0.037   1497.233   0.102       38.912  0.400    0.000     0.000
           33   194    2340.66        22.644         0.037   1497.233   0.102       38.912  0.400    0.000     0.000
           33   195    3433.02        22.644         0.037   1497.233   0.102       38.912  0.400    0.000     0.000
           33   196    1490.28        22.644         0.037   1497.233   0.102       38.912  0.400    0.000     0.000
           33   197    1841.89        22.644         0.037   1497.233   0.102       38.912  0.400    0.000     0.000
           33   198    5239.59        22.644         0.037   1497.233   0.102       38.912  0.400    0.000     0.000
           33   199    6034.84        22.644         0.037   1497.233   0.102       38.912  0.400    0.000     0.000
           33   200    4213.00        22.644         0.037   1497.233   0.102       38.912  0.400    0.000     0.000
           33   201    4928.73        22.644         0.037   1497.233   0.102       38.912  0.400    0.000     0.000
           34   202    3470.46        22.644         0.037   1497.233   0.102       38.912  0.400    0.000     0.000
           34   203    2175.06        22.644         0.037   1497.233   0.102       38.912  0.400    0.000     0.000
           34   204    4117.00        22.644         0.037   1497.233   0.102       38.912  0.400    0.000     0.000
           34   205    2452.67        22.644         0.037   1497.233   0.102       38.912  0.400    0.000     0.000
           34   206    2953.60        22.644         0.037   1497.233   0.102       38.912  0.400    0.000     0.000
           34   207    3410.19        22.644         0.037   1497.233   0.102       38.912  0.400    0.000     0.000
           34   208    1256.87        22.644         0.037   1497.233   0.102       38.912  0.400    0.000     0.000
           34   209    1279.97        22.644         0.037   1497.233   0.102       38.912  0.400    0.000     0.000
           34   210     890.59        22.644         0.037   1497.233   0.102       38.912  0.400    0.000     0.000
           35   211   33569.19        22.644         0.037   1497.233   0.102       38.912  0.400    0.000     0.000
           35   212    3164.44        22.644         0.037   1497.233   0.102       38.912  0.400    0.000     0.000
           35   213    7861.14        22.644         0.037   1497.233   0.102       38.912  0.400    0.000     0.000
           35   214    5505.82        22.644         0.037   1497.233   0.102       38.912  0.400    0.000     0.000
           35   215    9357.74        22.644         0.037   1497.233   0.102       38.912  0.400    0.000     0.000
           35   216    3180.93        22.644         0.037   1497.233   0.102       38.912  0.400    0.000     0.000
           35   217    3985.65        22.644         0.037   1497.233   0.102       38.912  0.400    0.000     0.000
           36   218   15150.54        22.644         0.037   1497.233   0.102       38.912  0.400    0.000     0.000
           36   219    1563.28        22.644         0.037   1497.233   0.102       38.912  0.400    0.000     0.000
           36   220    2410.61        22.644         0.037   1497.233   0.102       38.912  0.400    0.000     0.000
           37   221      41.75        22.644         0.037   1497.233   0.102       38.912  0.400    0.000     0.000
           37   222      30.70        22.644         0.037   1497.233   0.102       38.912  0.400    0.000     0.000
           38   223   11741.00        22.644         0.037   1497.233   0.102       38.912  0.400    0.000     0.000
           38   224    1548.29        22.644         0.037   1497.233   0.102       38.912  0.400    0.000     0.000
           38   225    1579.87        22.644         0.037   1497.233   0.102       38.912  0.400    0.000     0.000
           38   226    2354.27        22.644         0.037   1497.233   0.102       38.912  0.400    0.000     0.000
           38   227    2061.56        22.644         0.037   1497.233   0.102       38.912  0.400    0.000     0.000
           39   228    8567.50        22.644         0.037   1497.233   0.102       38.912  0.400    0.000     0.000
           39   229   21227.54        22.644         0.037   1497.233   0.102       38.912  0.400    0.000     0.000
           39   230    3740.17        22.644         0.037   1497.233   0.102       38.912  0.400    0.000     0.000
           39   231    7414.78        22.644         0.037   1497.233   0.102       38.912  0.400    0.000     0.000
           39   232    5384.73        22.644         0.037   1497.233   0.102       38.912  0.400    0.000     0.000
           39   233    3738.69        22.644         0.037   1497.233   0.102       38.912  0.400    0.000     0.000
           40   234   20430.96        22.644         0.037   1497.233   0.102       38.912  0.400    0.000     0.000
           40   235   33141.34        22.644         0.037   1497.233   0.102       38.912  0.400    0.000     0.000
           40   236    7806.65        22.644         0.037   1497.233   0.102       38.912  0.400    0.000     0.000
           40   237    7942.94        22.644         0.037   1497.233   0.102       38.912  0.400    0.000     0.000
           40   238    4706.03        22.644         0.037   1497.233   0.102       38.912  0.400    0.000     0.000
           40   239    4460.70        22.644         0.037   1497.233   0.102       38.912  0.400    0.000     0.000
           41   240    3576.17        22.644         0.037   1497.233   0.102       38.912  0.400    0.000     0.000
           41   241    7273.41        22.644         0.037   1497.233   0.102       38.912  0.400    0.000     0.000
           41   242    1210.01        22.644         0.037   1497.233   0.102       38.912  0.400    0.000     0.000
           41   243    1784.57        22.644         0.037   1497.233   0.102       38.912  0.400    0.000     0.000
           41   244    1807.15        22.644         0.037   1497.233   0.102       38.912  0.400    0.000     0.000
           41   245    3207.17        22.644         0.037   1497.233   0.102       38.912  0.400    0.000     0.000
           41   246    4397.24        22.644         0.037   1497.233   0.102       38.912  0.400    0.000     0.000

         Tributary/Main Channel Characteristics
              |--------------Tributary--------------------|---------------------Main---------------------------|
          Sub  Length(km) Slope Width(m) Cond(mm/hr)     N Length(km) Slope Width(m) Depth(m) Cond(mm/hr)     N
            1       25.68 0.051    19.48      2.0000 0.014       7.79 0.008   344.05     5.39    102.6821 0.066
            2       46.27 0.053    33.96      2.0000 0.014      16.73 0.026    33.96     1.15    102.6821 0.066
            3       46.04 0.044    45.57      2.0000 0.014      32.67 0.009   337.94     5.32    102.6821 0.066
            4        9.92 0.105     6.60      2.0000 0.014       5.59 0.005   309.00     5.01    102.6821 0.066
            5       31.32 0.064    31.95      2.0000 0.014       1.12 0.046    31.95     1.11    102.6821 0.066
            6       16.78 0.084    15.86      2.0000 0.014       9.77 0.021    86.48     2.14    102.6821 0.066
            7       51.48 0.032    49.31      2.0000 0.014      21.79 0.019    49.31     1.48    102.6821 0.066
            8       13.29 0.080    12.00      2.0000 0.014      11.88 0.025    60.32     1.69    102.6821 0.066
            9       28.36 0.046    29.90      2.0000 0.014       7.82 0.032    29.90     1.06    102.6821 0.066
           10       45.07 0.060    49.83      2.0000 0.014      27.95 0.010   304.45     4.97    102.6821 0.066
           11       41.35 0.057    36.82      2.0000 0.014      16.26 0.048    36.82     1.21    102.6821 0.066
           12       51.77 0.037    45.35      2.0000 0.014      31.09 0.025    45.35     1.39    102.6821 0.066
           13       23.30 0.102    20.50      2.0000 0.014      16.17 0.006   289.86     4.80    102.6821 0.066
           14       45.62 0.055    47.39      2.0000 0.014      25.12 0.036    47.39     1.44    102.6821 0.066
           15        5.21 0.273     4.93      2.0000 0.014       2.64 0.002   279.13     4.68    102.6821 0.066
           16       36.11 0.055    30.63      2.0000 0.014      12.60 0.039    30.63     1.07    102.6821 0.066
           17       29.85 0.078    32.18      2.0000 0.014      14.66 0.007   274.69     4.64    102.6821 0.066
           18       23.05 0.095    27.36      2.0000 0.014       9.48 0.006   265.78     4.53    102.6821 0.066
           19       21.54 0.096    22.01      2.0000 0.014       5.08 0.008   258.09     4.45    102.6821 0.066
           20       31.97 0.065    29.18      2.0000 0.014       2.31 0.031    29.18     1.04    102.6821 0.066
           21       35.84 0.056    30.34      2.0000 0.014      14.32 0.031    30.34     1.07    102.6821 0.066
           22       32.83 0.065    35.69      2.0000 0.014       8.38 0.028    35.69     1.19    102.6821 0.066
           23       47.98 0.040    48.09      2.0000 0.014      31.68 0.006   249.71     4.35    102.6821 0.066
           24       21.54 0.077    26.14      2.0000 0.014       1.31 0.041    26.14     0.97    102.6821 0.066
           25       36.22 0.050    37.53      2.0000 0.014      20.86 0.006   236.36     4.19    102.6821 0.066
           26       36.15 0.055    53.55      2.0000 0.014      18.12 0.007   203.58     3.80    102.6821 0.066
           27       39.69 0.041    45.39      2.0000 0.014      18.38 0.028    45.39     1.40    102.6821 0.066
           28       32.46 0.047    28.39      2.0000 0.014      25.55 0.013    82.71     2.08    102.6821 0.066
           29       30.73 0.045    35.54      2.0000 0.014      17.21 0.006   184.60     3.56    102.6821 0.066
           30       37.56 0.051    30.61      2.0000 0.014       9.88 0.021    30.61     1.07    102.6821 0.066
           31       40.94 0.041    52.16      2.0000 0.014      16.88 0.015    52.16     1.53    102.6821 0.066
           32       47.13 0.036    58.63      2.0000 0.014      28.57 0.005   168.68     3.35    102.6821 0.066
           33       47.65 0.039    39.14      2.0000 0.014      28.56 0.017    39.14     1.26    102.6821 0.066
           34       40.72 0.038    32.82      2.0000 0.014      19.20 0.016    32.82     1.12    102.6821 0.066
           35       52.24 0.028    63.79      2.0000 0.014      26.54 0.003   143.39     3.01    102.6821 0.066
           36       30.99 0.027    30.17      2.0000 0.014       6.80 0.003    30.17     1.06    102.6821 0.066
           37        3.45 0.003     1.06      2.0000 0.014       0.31 0.016   112.39     2.56    102.6821 0.066
           38       47.62 0.028    30.33      2.0000 0.014       6.36 0.002    30.33     1.07    102.6821 0.066
           39       39.94 0.023    53.76      2.0000 0.014      13.70 0.001   102.93     2.41    102.6821 0.066
           40       65.39 0.018    70.39      2.0000 0.014      37.56 0.003    70.39     1.87    102.6821 0.066
           41       47.93 0.022    33.93      2.0000 0.014      21.03 0.010    33.93     1.15    102.6821 0.066
