1
    SWAT  Sept '05 VERSION2005                                                                           0/ 0/   0      0: 0: 0

    General Input/Output section (file.cio): ArcSWAT 2.3.4                          
    2013/5/29 0:00:00ARCGIS-SWAT interface AV                                       
                                                                                    


       RCH      GIS   MON     AREAkm2  FLOW_INcms FLOW_OUTcms     EVAPcms    TLOSScms  SED_INtons SED_OUTtonsSEDCONCmg/kg   ORGN_INkg  ORGN_OUTkg   ORGP_INkg  ORGP_OUTkg    NO3_INkg   NO3_OUTkg    NH4_INkg   NH4_OUTkg    NO2_INkg   NO2_OUTkg   MINP_INkg  MINP_OUTkg   CHLA_INkg  CHLA_OUTkg   CBOD_INkg  CBOD_OUTkg  DISOX_INkg DISOX_OUTkg SOLPST_INmgSOLPST_OUTmg SORPST_INmgSORPST_OUTmg  REACTPSTmg    VOLPSTmg  SETTLPSTmgRESUSP_PSTmgDIFFUSEPSTmgREACBEDPSTmg   BURYPSTmg   BED_PSTmg BACTP_OUTctBACTLP_OUTct  CMETAL#1kg  CMETAL#2kg  CMETAL#3kg
REACH    1        0     1  0.1105E+05  0.1064E-05  0.0000E+00  0.0000E+00  0.1064E-05  0.9284E-07  0.0000E+00  0.0000E+00  0.2859E+00  0.0000E+00  0.5719E+00  0.0000E+00  0.8578E+00  0.0000E+00  0.0000E+00  0.0000E+00  0.0000E+00  0.0000E+00  0.8578E+00  0.0000E+00  0.0000E+00  0.0000E+00  0.0000E+00  0.0000E+00  0.0000E+00  0.0000E+00  0.0000E+00  0.0000E+00  0.0000E+00  0.0000E+00  0.0000E+00  0.0000E+00  0.0000E+00  0.0000E+00  0.0000E+00  0.0000E+00  0.0000E+00  0.0000E+00  0.0000E+00  0.0000E+00  0.0000E+00  0.0000E+00  0.0000E+00
REACH    2        0     1  0.2330E+03  0.2692E-05  0.0000E+00  0.0000E+00  0.2692E-05  0.2479E-06  0.0000E+00  0.0000E+00  0.7219E+00  0.0000E+00  0.1444E+01  0.0000E+00  0.2166E+01  0.0000E+00  0.0000E+00  0.0000E+00  0.0000E+00  0.0000E+00  0.2166E+01  0.0000E+00  0.0000E+00  0.0000E+00  0.0000E+00  0.0000E+00  0.0000E+00  0.0000E+00  0.0000E+00  0.0000E+00  0.0000E+00  0.0000E+00  0.0000E+00  0.0000E+00  0.0000E+00  0.0000E+00  0.0000E+00  0.0000E+00  0.0000E+00  0.0000E+00  0.0000E+00  0.0000E+00  0.0000E+00  0.0000E+00  0.0000E+00
REACH    3        0     1  0.1073E+05  0.4402E-05  0.0000E+00  0.0000E+00  0.4402E-05  0.2790E-06  0.0000E+00  0.0000E+00  0.1179E+01  0.0000E+00  0.2358E+01  0.0000E+00  0.3538E+01  0.0000E+00  0.0000E+00  0.0000E+00  0.0000E+00  0.0000E+00  0.3538E+01  0.0000E+00  0.0000E+00  0.0000E+00  0.0000E+00  0.0000E+00  0.0000E+00  0.0000E+00  0.0000E+00  0.0000E+00  0.0000E+00  0.0000E+00  0.0000E+00  0.0000E+00  0.0000E+00  0.0000E+00  0.0000E+00  0.0000E+00  0.0000E+00  0.0000E+00  0.0000E+00  0.0000E+00  0.0000E+00  0.0000E+00  0.0000E+00
REACH    4        0     1  0.9239E+04  0.1760E-06  0.0000E+00  0.0000E+00  0.1760E-06  0.9300E-07  0.0000E+00  0.0000E+00  0.4715E-01  0.0000E+00  0.9430E-01  0.0000E+00  0.1414E+00  0.0000E+00  0.0000E+00  0.0000E+00  0.0000E+00  0.0000E+00  0.1414E+00  0.0000E+00  0.0000E+00  0.0000E+00  0.0000E+00  0.0000E+00  0.0000E+00  0.0000E+00  0.0000E+00  0.0000E+00  0.0000E+00  0.0000E+00  0.0000E+00  0.0000E+00  0.0000E+00  0.0000E+00  0.0000E+00  0.0000E+00  0.0000E+00  0.0000E+00  0.0000E+00  0.0000E+00  0.0000E+00  0.0000E+00  0.0000E+00
REACH    5        0     1  0.2104E+03  0.2434E-05  0.0000E+00  0.0000E+00  0.2434E-05  0.9294E-07  0.0000E+00  0.0000E+00  0.6524E+00  0.0000E+00  0.1305E+01  0.0000E+00  0.1957E+01  0.0000E+00  0.0000E+00  0.0000E+00  0.0000E+00  0.0000E+00  0.1957E+01  0.0000E+00  0.0000E+00  0.0000E+00  0.0000E+00  0.0000E+00  0.0000E+00  0.0000E+00  0.0000E+00  0.0000E+00  0.0000E+00  0.0000E+00  0.0000E+00  0.0000E+00  0.0000E+00  0.0000E+00  0.0000E+00  0.0000E+00  0.0000E+00  0.0000E+00  0.0000E+00  0.0000E+00  0.0000E+00  0.0000E+00  0.0000E+00
REACH    6        0     1  0.1106E+04  0.7584E-06  0.0000E+00  0.0000E+00  0.7584E-06  0.1550E-06  0.0000E+00  0.0000E+00  0.2031E+00  0.0000E+00  0.4063E+00  0.0000E+00  0.6094E+00  0.0000E+00  0.0000E+00  0.0000E+00  0.0000E+00  0.0000E+00  0.6094E+00  0.0000E+00  0.0000E+00  0.0000E+00  0.0000E+00  0.0000E+00  0.0000E+00  0.0000E+00  0.0000E+00  0.0000E+00  0.0000E+00  0.0000E+00  0.0000E+00  0.0000E+00  0.0000E+00  0.0000E+00  0.0000E+00  0.0000E+00  0.0000E+00  0.0000E+00  0.0000E+00  0.0000E+00  0.0000E+00  0.0000E+00  0.0000E+00
REACH    7        0     1  0.4338E+03  0.5005E-05  0.0000E+00  0.0000E+00  0.5005E-05  0.9273E-07  0.0000E+00  0.0000E+00  0.1345E+01  0.0000E+00  0.2690E+01  0.0000E+00  0.4035E+01  0.0000E+00  0.0000E+00  0.0000E+00  0.0000E+00  0.0000E+00  0.4035E+01  0.0000E+00  0.0000E+00  0.0000E+00  0.0000E+00  0.0000E+00  0.0000E+00  0.0000E+00  0.0000E+00  0.0000E+00  0.0000E+00  0.0000E+00  0.0000E+00  0.0000E+00  0.0000E+00  0.0000E+00  0.0000E+00  0.0000E+00  0.0000E+00  0.0000E+00  0.0000E+00  0.0000E+00  0.0000E+00  0.0000E+00  0.0000E+00
REACH    8        0     1  0.6069E+03  0.4762E-06  0.0000E+00  0.0000E+00  0.4762E-06  0.1240E-06  0.0000E+00  0.0000E+00  0.1276E+00  0.0000E+00  0.2551E+00  0.0000E+00  0.3827E+00  0.0000E+00  0.0000E+00  0.0000E+00  0.0000E+00  0.0000E+00  0.3827E+00  0.0000E+00  0.0000E+00  0.0000E+00  0.0000E+00  0.0000E+00  0.0000E+00  0.0000E+00  0.0000E+00  0.0000E+00  0.0000E+00  0.0000E+00  0.0000E+00  0.0000E+00  0.0000E+00  0.0000E+00  0.0000E+00  0.0000E+00  0.0000E+00  0.0000E+00  0.0000E+00  0.0000E+00  0.0000E+00  0.0000E+00  0.0000E+00
REACH    9        0     1  0.1884E+03  0.2175E-05  0.0000E+00  0.0000E+00  0.2175E-05  0.6187E-07  0.0000E+00  0.0000E+00  0.5842E+00  0.0000E+00  0.1168E+01  0.0000E+00  0.1753E+01  0.0000E+00  0.0000E+00  0.0000E+00  0.0000E+00  0.0000E+00  0.1753E+01  0.0000E+00  0.0000E+00  0.0000E+00  0.0000E+00  0.0000E+00  0.0000E+00  0.0000E+00  0.0000E+00  0.0000E+00  0.0000E+00  0.0000E+00  0.0000E+00  0.0000E+00  0.0000E+00  0.0000E+00  0.0000E+00  0.0000E+00  0.0000E+00  0.0000E+00  0.0000E+00  0.0000E+00  0.0000E+00  0.0000E+00  0.0000E+00
REACH   10        0     1  0.9013E+04  0.5109E-05  0.0000E+00  0.0000E+00  0.5109E-05  0.1860E-06  0.0000E+00  0.0000E+00  0.1369E+01  0.0000E+00  0.2737E+01  0.0000E+00  0.4106E+01  0.0000E+00  0.0000E+00  0.0000E+00  0.0000E+00  0.0000E+00  0.4106E+01  0.0000E+00  0.0000E+00  0.0000E+00  0.0000E+00  0.0000E+00  0.0000E+00  0.0000E+00  0.0000E+00  0.0000E+00  0.0000E+00  0.0000E+00  0.0000E+00  0.0000E+00  0.0000E+00  0.0000E+00  0.0000E+00  0.0000E+00  0.0000E+00  0.0000E+00  0.0000E+00  0.0000E+00  0.0000E+00  0.0000E+00  0.0000E+00
REACH   11        0     1  0.2665E+03  0.3082E-05  0.0000E+00  0.0000E+00  0.3082E-05  0.6194E-07  0.0000E+00  0.0000E+00  0.8263E+00  0.0000E+00  0.1653E+01  0.0000E+00  0.2479E+01  0.0000E+00  0.0000E+00  0.0000E+00  0.0000E+00  0.0000E+00  0.2479E+01  0.0000E+00  0.0000E+00  0.0000E+00  0.0000E+00  0.0000E+00  0.0000E+00  0.0000E+00  0.0000E+00  0.0000E+00  0.0000E+00  0.0000E+00  0.0000E+00  0.0000E+00  0.0000E+00  0.0000E+00  0.0000E+00  0.0000E+00  0.0000E+00  0.0000E+00  0.0000E+00  0.0000E+00  0.0000E+00  0.0000E+00  0.0000E+00
REACH   12        0     1  0.3773E+03  0.4361E-05  0.0000E+00  0.0000E+00  0.4361E-05  0.1549E-06  0.0000E+00  0.0000E+00  0.1170E+01  0.0000E+00  0.2340E+01  0.0000E+00  0.3509E+01  0.0000E+00  0.0000E+00  0.0000E+00  0.0000E+00  0.0000E+00  0.3509E+01  0.0000E+00  0.0000E+00  0.0000E+00  0.0000E+00  0.0000E+00  0.0000E+00  0.0000E+00  0.0000E+00  0.0000E+00  0.0000E+00  0.0000E+00  0.0000E+00  0.0000E+00  0.0000E+00  0.0000E+00  0.0000E+00  0.0000E+00  0.0000E+00  0.0000E+00  0.0000E+00  0.0000E+00  0.0000E+00  0.0000E+00  0.0000E+00
REACH   13        0     1  0.8305E+04  0.1163E-05  0.0000E+00  0.0000E+00  0.1163E-05  0.6200E-07  0.0000E+00  0.0000E+00  0.3115E+00  0.0000E+00  0.6230E+00  0.0000E+00  0.9344E+00  0.0000E+00  0.0000E+00  0.0000E+00  0.0000E+00  0.0000E+00  0.9344E+00  0.0000E+00  0.0000E+00  0.0000E+00  0.0000E+00  0.0000E+00  0.0000E+00  0.0000E+00  0.0000E+00  0.0000E+00  0.0000E+00  0.0000E+00  0.0000E+00  0.0000E+00  0.0000E+00  0.0000E+00  0.0000E+00  0.0000E+00  0.0000E+00  0.0000E+00  0.0000E+00  0.0000E+00  0.0000E+00  0.0000E+00  0.0000E+00
REACH   14        0     1  0.4059E+03  0.4698E-05  0.0000E+00  0.0000E+00  0.4698E-05  0.1550E-06  0.0000E+00  0.0000E+00  0.1258E+01  0.0000E+00  0.2517E+01  0.0000E+00  0.3775E+01  0.0000E+00  0.0000E+00  0.0000E+00  0.0000E+00  0.0000E+00  0.3775E+01  0.0000E+00  0.0000E+00  0.0000E+00  0.0000E+00  0.0000E+00  0.0000E+00  0.0000E+00  0.0000E+00  0.0000E+00  0.0000E+00  0.0000E+00  0.0000E+00  0.0000E+00  0.0000E+00  0.0000E+00  0.0000E+00  0.0000E+00  0.0000E+00  0.0000E+00  0.0000E+00  0.0000E+00  0.0000E+00  0.0000E+00  0.0000E+00
REACH   15        0     1  0.7799E+04  0.2281E-05  0.0000E+00  0.0000E+00  0.2281E-05  0.2590E-06  0.0000E+00  0.0000E+00  0.2897E-01  0.0000E+00  0.5794E-01  0.0000E+00  0.8690E-01  0.0000E+00  0.0000E+00  0.0000E+00  0.0000E+00  0.0000E+00  0.8690E-01  0.0000E+00  0.0000E+00  0.0000E+00  0.0000E+00  0.0000E+00  0.0000E+00  0.0000E+00  0.0000E+00  0.0000E+00  0.0000E+00  0.0000E+00  0.0000E+00  0.0000E+00  0.0000E+00  0.0000E+00  0.0000E+00  0.0000E+00  0.0000E+00  0.0000E+00  0.0000E+00  0.0000E+00  0.0000E+00  0.0000E+00  0.0000E+00
REACH   16        0     1  0.1961E+03  0.2270E-05  0.3525E-06  0.0000E+00  0.2270E-05  0.1860E-06  0.4200E-07  0.1101E-01  0.6081E+00  0.0000E+00  0.1216E+01  0.0000E+00  0.1824E+01  0.0000E+00  0.0000E+00  0.0000E+00  0.0000E+00  0.0000E+00  0.1824E+01  0.0000E+00  0.0000E+00  0.0000E+00  0.0000E+00  0.0000E+00  0.0000E+00  0.0000E+00  0.0000E+00  0.0000E+00  0.0000E+00  0.0000E+00  0.0000E+00  0.0000E+00  0.0000E+00  0.0000E+00  0.0000E+00  0.0000E+00  0.0000E+00  0.0000E+00  0.0000E+00  0.0000E+00  0.0000E+00  0.0000E+00  0.0000E+00
REACH   17        0     1  0.7593E+04  0.4766E-05  0.1820E-05  0.0000E+00  0.4766E-05  0.1920E-06  0.0000E+00  0.0000E+00  0.6604E+00  0.0000E+00  0.1321E+01  0.0000E+00  0.1981E+01  0.0000E+00  0.0000E+00  0.0000E+00  0.0000E+00  0.0000E+00  0.1981E+01  0.0000E+00  0.0000E+00  0.0000E+00  0.0000E+00  0.0000E+00  0.0000E+00  0.0000E+00  0.0000E+00  0.0000E+00  0.0000E+00  0.0000E+00  0.0000E+00  0.0000E+00  0.0000E+00  0.0000E+00  0.0000E+00  0.0000E+00  0.0000E+00  0.0000E+00  0.0000E+00  0.0000E+00  0.0000E+00  0.0000E+00  0.0000E+00
REACH   18        0     1  0.7187E+04  0.4546E-05  0.1953E-05  0.0000E+00  0.4546E-05  0.2500E-06  0.0000E+00  0.0000E+00  0.5038E+00  0.0000E+00  0.1008E+01  0.0000E+00  0.1511E+01  0.0000E+00  0.0000E+00  0.0000E+00  0.0000E+00  0.0000E+00  0.1511E+01  0.0000E+00  0.0000E+00  0.0000E+00  0.0000E+00  0.0000E+00  0.0000E+00  0.0000E+00  0.0000E+00  0.0000E+00  0.0000E+00  0.0000E+00  0.0000E+00  0.0000E+00  0.0000E+00  0.0000E+00  0.0000E+00  0.0000E+00  0.0000E+00  0.0000E+00  0.0000E+00  0.0000E+00  0.0000E+00  0.0000E+00  0.0000E+00
REACH   19        0     1  0.6844E+04  0.4665E-05  0.2324E-05  0.0000E+00  0.4665E-05  0.1200E-06  0.0000E+00  0.0000E+00  0.3507E+00  0.0000E+00  0.7014E+00  0.0000E+00  0.1052E+01  0.0000E+00  0.0000E+00  0.0000E+00  0.0000E+00  0.0000E+00  0.1052E+01  0.0000E+00  0.0000E+00  0.0000E+00  0.0000E+00  0.0000E+00  0.0000E+00  0.0000E+00  0.0000E+00  0.0000E+00  0.0000E+00  0.0000E+00  0.0000E+00  0.0000E+00  0.0000E+00  0.0000E+00  0.0000E+00  0.0000E+00  0.0000E+00  0.0000E+00  0.0000E+00  0.0000E+00  0.0000E+00  0.0000E+00  0.0000E+00
REACH   20        0     1  0.1810E+03  0.2094E-05  0.3408E-06  0.0000E+00  0.2094E-05  0.3100E-06  0.8000E-07  0.3388E-01  0.5610E+00  0.0000E+00  0.1122E+01  0.0000E+00  0.1683E+01  0.0000E+00  0.0000E+00  0.0000E+00  0.0000E+00  0.0000E+00  0.1683E+01  0.0000E+00  0.0000E+00  0.0000E+00  0.0000E+00  0.0000E+00  0.0000E+00  0.0000E+00  0.0000E+00  0.0000E+00  0.0000E+00  0.0000E+00  0.0000E+00  0.0000E+00  0.0000E+00  0.0000E+00  0.0000E+00  0.0000E+00  0.0000E+00  0.0000E+00  0.0000E+00  0.0000E+00  0.0000E+00  0.0000E+00  0.0000E+00
REACH   21        0     1  0.1930E+03  0.2234E-05  0.3469E-06  0.0000E+00  0.2234E-05  0.1550E-06  0.3500E-07  0.9322E-02  0.5984E+00  0.0000E+00  0.1197E+01  0.0000E+00  0.1795E+01  0.0000E+00  0.0000E+00  0.0000E+00  0.0000E+00  0.0000E+00  0.1795E+01  0.0000E+00  0.0000E+00  0.0000E+00  0.0000E+00  0.0000E+00  0.0000E+00  0.0000E+00  0.0000E+00  0.0000E+00  0.0000E+00  0.0000E+00  0.0000E+00  0.0000E+00  0.0000E+00  0.0000E+00  0.0000E+00  0.0000E+00  0.0000E+00  0.0000E+00  0.0000E+00  0.0000E+00  0.0000E+00  0.0000E+00  0.0000E+00
REACH   22        0     1  0.2531E+03  0.2929E-05  0.4549E-06  0.0000E+00  0.2929E-05  0.3410E-06  0.7700E-07  0.1564E-01  0.7847E+00  0.0000E+00  0.1569E+01  0.0000E+00  0.2354E+01  0.0000E+00  0.0000E+00  0.0000E+00  0.0000E+00  0.0000E+00  0.2354E+01  0.0000E+00  0.0000E+00  0.0000E+00  0.0000E+00  0.0000E+00  0.0000E+00  0.0000E+00  0.0000E+00  0.0000E+00  0.0000E+00  0.0000E+00  0.0000E+00  0.0000E+00  0.0000E+00  0.0000E+00  0.0000E+00  0.0000E+00  0.0000E+00  0.0000E+00  0.0000E+00  0.0000E+00  0.0000E+00  0.0000E+00  0.0000E+00
REACH   23        0     1  0.6477E+04  0.8239E-05  0.2901E-05  0.0000E+00  0.8239E-05  0.1550E-06  0.0000E+00  0.0000E+00  0.1290E+01  0.0000E+00  0.2580E+01  0.0000E+00  0.3869E+01  0.0000E+00  0.0000E+00  0.0000E+00  0.0000E+00  0.0000E+00  0.3869E+01  0.0000E+00  0.0000E+00  0.0000E+00  0.0000E+00  0.0000E+00  0.0000E+00  0.0000E+00  0.0000E+00  0.0000E+00  0.0000E+00  0.0000E+00  0.0000E+00  0.0000E+00  0.0000E+00  0.0000E+00  0.0000E+00  0.0000E+00  0.0000E+00  0.0000E+00  0.0000E+00  0.0000E+00  0.0000E+00  0.0000E+00  0.0000E+00
REACH   24        0     1  0.1506E+03  0.1743E-05  0.2885E-06  0.0000E+00  0.1743E-05  0.3410E-06  0.8800E-07  0.3916E-01  0.4668E+00  0.0000E+00  0.9337E+00  0.0000E+00  0.1400E+01  0.0000E+00  0.0000E+00  0.0000E+00  0.0000E+00  0.0000E+00  0.1400E+01  0.0000E+00  0.0000E+00  0.0000E+00  0.0000E+00  0.0000E+00  0.0000E+00  0.0000E+00  0.0000E+00  0.0000E+00  0.0000E+00  0.0000E+00  0.0000E+00  0.0000E+00  0.0000E+00  0.0000E+00  0.0000E+00  0.0000E+00  0.0000E+00  0.0000E+00  0.0000E+00  0.0000E+00  0.0000E+00  0.0000E+00  0.0000E+00
REACH   25        0     1  0.5911E+04  0.7322E-05  0.3135E-05  0.0000E+00  0.7322E-05  0.1440E-06  0.0000E+00  0.0000E+00  0.8532E+00  0.0000E+00  0.1706E+01  0.0000E+00  0.2560E+01  0.0000E+00  0.0000E+00  0.0000E+00  0.0000E+00  0.0000E+00  0.2560E+01  0.0000E+00  0.0000E+00  0.0000E+00  0.0000E+00  0.0000E+00  0.0000E+00  0.0000E+00  0.0000E+00  0.0000E+00  0.0000E+00  0.0000E+00  0.0000E+00  0.0000E+00  0.0000E+00  0.0000E+00  0.0000E+00  0.0000E+00  0.0000E+00  0.0000E+00  0.0000E+00  0.0000E+00  0.0000E+00  0.0000E+00  0.0000E+00
REACH   26        0     1  0.4609E+04  0.8765E-05  0.2808E-05  0.0000E+00  0.8765E-05  0.2160E-06  0.0000E+00  0.0000E+00  0.1543E+01  0.0000E+00  0.3086E+01  0.0000E+00  0.4629E+01  0.0000E+00  0.0000E+00  0.0000E+00  0.0000E+00  0.0000E+00  0.4629E+01  0.0000E+00  0.0000E+00  0.0000E+00  0.0000E+00  0.0000E+00  0.0000E+00  0.0000E+00  0.0000E+00  0.0000E+00  0.0000E+00  0.0000E+00  0.0000E+00  0.0000E+00  0.0000E+00  0.0000E+00  0.0000E+00  0.0000E+00  0.0000E+00  0.0000E+00  0.0000E+00  0.0000E+00  0.0000E+00  0.0000E+00  0.0000E+00
REACH   27        0     1  0.3778E+03  0.4364E-05  0.6776E-06  0.0000E+00  0.4364E-05  0.1239E-06  0.2797E-07  0.3814E-02  0.1171E+01  0.0000E+00  0.2343E+01  0.0000E+00  0.3514E+01  0.0000E+00  0.0000E+00  0.0000E+00  0.0000E+00  0.0000E+00  0.3514E+01  0.0000E+00  0.0000E+00  0.0000E+00  0.0000E+00  0.0000E+00  0.0000E+00  0.0000E+00  0.0000E+00  0.0000E+00  0.0000E+00  0.0000E+00  0.0000E+00  0.0000E+00  0.0000E+00  0.0000E+00  0.0000E+00  0.0000E+00  0.0000E+00  0.0000E+00  0.0000E+00  0.0000E+00  0.0000E+00  0.0000E+00  0.0000E+00
REACH   28        0     1  0.1027E+04  0.3534E-05  0.1329E-05  0.0000E+00  0.3534E-05  0.2880E-06  0.0000E+00  0.0000E+00  0.5359E+00  0.0000E+00  0.1072E+01  0.0000E+00  0.1608E+01  0.0000E+00  0.0000E+00  0.0000E+00  0.0000E+00  0.0000E+00  0.1608E+01  0.0000E+00  0.0000E+00  0.0000E+00  0.0000E+00  0.0000E+00  0.0000E+00  0.0000E+00  0.0000E+00  0.0000E+00  0.0000E+00  0.0000E+00  0.0000E+00  0.0000E+00  0.0000E+00  0.0000E+00  0.0000E+00  0.0000E+00  0.0000E+00  0.0000E+00  0.0000E+00  0.0000E+00  0.0000E+00  0.0000E+00  0.0000E+00
REACH   29        0     1  0.3915E+04  0.6321E-05  0.2653E-05  0.0000E+00  0.6321E-05  0.1200E-06  0.0000E+00  0.0000E+00  0.7791E+00  0.0000E+00  0.1558E+01  0.0000E+00  0.2337E+01  0.0000E+00  0.0000E+00  0.0000E+00  0.0000E+00  0.0000E+00  0.2337E+01  0.0000E+00  0.0000E+00  0.0000E+00  0.0000E+00  0.0000E+00  0.0000E+00  0.0000E+00  0.0000E+00  0.0000E+00  0.0000E+00  0.0000E+00  0.0000E+00  0.0000E+00  0.0000E+00  0.0000E+00  0.0000E+00  0.0000E+00  0.0000E+00  0.0000E+00  0.0000E+00  0.0000E+00  0.0000E+00  0.0000E+00  0.0000E+00
REACH   30        0     1  0.1959E+03  0.2267E-05  0.3521E-06  0.0000E+00  0.2267E-05  0.1860E-06  0.4200E-07  0.1102E-01  0.6074E+00  0.0000E+00  0.1215E+01  0.0000E+00  0.1822E+01  0.0000E+00  0.0000E+00  0.0000E+00  0.0000E+00  0.0000E+00  0.1822E+01  0.0000E+00  0.0000E+00  0.0000E+00  0.0000E+00  0.0000E+00  0.0000E+00  0.0000E+00  0.0000E+00  0.0000E+00  0.0000E+00  0.0000E+00  0.0000E+00  0.0000E+00  0.0000E+00  0.0000E+00  0.0000E+00  0.0000E+00  0.0000E+00  0.0000E+00  0.0000E+00  0.0000E+00  0.0000E+00  0.0000E+00  0.0000E+00
REACH   31        0     1  0.4764E+03  0.5512E-05  0.8560E-06  0.0000E+00  0.5512E-05  0.1550E-06  0.3499E-07  0.3777E-02  0.1477E+01  0.0000E+00  0.2954E+01  0.0000E+00  0.4431E+01  0.0000E+00  0.0000E+00  0.0000E+00  0.0000E+00  0.0000E+00  0.4431E+01  0.0000E+00  0.0000E+00  0.0000E+00  0.0000E+00  0.0000E+00  0.0000E+00  0.0000E+00  0.0000E+00  0.0000E+00  0.0000E+00  0.0000E+00  0.0000E+00  0.0000E+00  0.0000E+00  0.0000E+00  0.0000E+00  0.0000E+00  0.0000E+00  0.0000E+00  0.0000E+00  0.0000E+00  0.0000E+00  0.0000E+00  0.0000E+00
REACH   32        0     1  0.3369E+04  0.9506E-05  0.2884E-05  0.0000E+00  0.9506E-05  0.1676E-06  0.0000E+00  0.0000E+00  0.1794E+01  0.0000E+00  0.3589E+01  0.0000E+00  0.5383E+01  0.0000E+00  0.0000E+00  0.0000E+00  0.0000E+00  0.0000E+00  0.5383E+01  0.0000E+00  0.0000E+00  0.0000E+00  0.0000E+00  0.0000E+00  0.0000E+00  0.0000E+00  0.0000E+00  0.0000E+00  0.0000E+00  0.0000E+00  0.0000E+00  0.0000E+00  0.0000E+00  0.0000E+00  0.0000E+00  0.0000E+00  0.0000E+00  0.0000E+00  0.0000E+00  0.0000E+00  0.0000E+00  0.0000E+00  0.0000E+00
REACH   33        0     1  0.2952E+03  0.3417E-05  0.5305E-06  0.0000E+00  0.3417E-05  0.2480E-06  0.5600E-07  0.9753E-02  0.9152E+00  0.0000E+00  0.1830E+01  0.0000E+00  0.2746E+01  0.0000E+00  0.0000E+00  0.0000E+00  0.0000E+00  0.0000E+00  0.2746E+01  0.0000E+00  0.0000E+00  0.0000E+00  0.0000E+00  0.0000E+00  0.0000E+00  0.0000E+00  0.0000E+00  0.0000E+00  0.0000E+00  0.0000E+00  0.0000E+00  0.0000E+00  0.0000E+00  0.0000E+00  0.0000E+00  0.0000E+00  0.0000E+00  0.0000E+00  0.0000E+00  0.0000E+00  0.0000E+00  0.0000E+00  0.0000E+00
REACH   34        0     1  0.2200E+03  0.2547E-05  0.3954E-06  0.0000E+00  0.2547E-05  0.2790E-06  0.6300E-07  0.1472E-01  0.6822E+00  0.0000E+00  0.1364E+01  0.0000E+00  0.2047E+01  0.0000E+00  0.0000E+00  0.0000E+00  0.0000E+00  0.0000E+00  0.2047E+01  0.0000E+00  0.0000E+00  0.0000E+00  0.0000E+00  0.0000E+00  0.0000E+00  0.0000E+00  0.0000E+00  0.0000E+00  0.0000E+00  0.0000E+00  0.0000E+00  0.0000E+00  0.0000E+00  0.0000E+00  0.0000E+00  0.0000E+00  0.0000E+00  0.0000E+00  0.0000E+00  0.0000E+00  0.0000E+00  0.0000E+00  0.0000E+00
REACH   35        0     1  0.2570E+04  0.9651E-05  0.2466E-05  0.0000E+00  0.9651E-05  0.1675E-06  0.0000E+00  0.0000E+00  0.2065E+01  0.0000E+00  0.4131E+01  0.0000E+00  0.6196E+01  0.0000E+00  0.0000E+00  0.0000E+00  0.0000E+00  0.0000E+00  0.6196E+01  0.0000E+00  0.0000E+00  0.0000E+00  0.0000E+00  0.0000E+00  0.0000E+00  0.0000E+00  0.0000E+00  0.0000E+00  0.0000E+00  0.0000E+00  0.0000E+00  0.0000E+00  0.0000E+00  0.0000E+00  0.0000E+00  0.0000E+00  0.0000E+00  0.0000E+00  0.0000E+00  0.0000E+00  0.0000E+00  0.0000E+00  0.0000E+00
REACH   36        0     1  0.1912E+03  0.2173E-05  0.3374E-06  0.0000E+00  0.2173E-05  0.9228E-07  0.2084E-07  0.5707E-02  0.5929E+00  0.0000E+00  0.1186E+01  0.0000E+00  0.1779E+01  0.0000E+00  0.0000E+00  0.0000E+00  0.0000E+00  0.0000E+00  0.1779E+01  0.0000E+00  0.0000E+00  0.0000E+00  0.0000E+00  0.0000E+00  0.0000E+00  0.0000E+00  0.0000E+00  0.0000E+00  0.0000E+00  0.0000E+00  0.0000E+00  0.0000E+00  0.0000E+00  0.0000E+00  0.0000E+00  0.0000E+00  0.0000E+00  0.0000E+00  0.0000E+00  0.0000E+00  0.0000E+00  0.0000E+00  0.0000E+00
REACH   37        0     1  0.1712E+04  0.2465E-05  0.1687E-05  0.0000E+00  0.2465E-05  0.4584E-07  0.0000E+00  0.0000E+00  0.2246E-02  0.0000E+00  0.4492E-02  0.0000E+00  0.6738E-02  0.0000E+00  0.0000E+00  0.0000E+00  0.0000E+00  0.0000E+00  0.6738E-02  0.0000E+00  0.0000E+00  0.0000E+00  0.0000E+00  0.0000E+00  0.0000E+00  0.0000E+00  0.0000E+00  0.0000E+00  0.0000E+00  0.0000E+00  0.0000E+00  0.0000E+00  0.0000E+00  0.0000E+00  0.0000E+00  0.0000E+00  0.0000E+00  0.0000E+00  0.0000E+00  0.0000E+00  0.0000E+00  0.0000E+00  0.0000E+00
REACH   38        0     1  0.1930E+03  0.2178E-05  0.3381E-06  0.0000E+00  0.2178E-05  0.1537E-06  0.3471E-07  0.9485E-02  0.5978E+00  0.0000E+00  0.1196E+01  0.0000E+00  0.1794E+01  0.0000E+00  0.0000E+00  0.0000E+00  0.0000E+00  0.0000E+00  0.1794E+01  0.0000E+00  0.0000E+00  0.0000E+00  0.0000E+00  0.0000E+00  0.0000E+00  0.0000E+00  0.0000E+00  0.0000E+00  0.0000E+00  0.0000E+00  0.0000E+00  0.0000E+00  0.0000E+00  0.0000E+00  0.0000E+00  0.0000E+00  0.0000E+00  0.0000E+00  0.0000E+00  0.0000E+00  0.0000E+00  0.0000E+00  0.0000E+00
REACH   39        0     1  0.1479E+04  0.7497E-05  0.2040E-05  0.0000E+00  0.7497E-05  0.1438E-06  0.0000E+00  0.0000E+00  0.1552E+01  0.0000E+00  0.3105E+01  0.0000E+00  0.4657E+01  0.0000E+00  0.0000E+00  0.0000E+00  0.0000E+00  0.0000E+00  0.4657E+01  0.0000E+00  0.0000E+00  0.0000E+00  0.0000E+00  0.0000E+00  0.0000E+00  0.0000E+00  0.0000E+00  0.0000E+00  0.0000E+00  0.0000E+00  0.0000E+00  0.0000E+00  0.0000E+00  0.0000E+00  0.0000E+00  0.0000E+00  0.0000E+00  0.0000E+00  0.0000E+00  0.0000E+00  0.0000E+00  0.0000E+00  0.0000E+00
REACH   40        0     1  0.7850E+03  0.8911E-05  0.1384E-05  0.0000E+00  0.8911E-05  0.1844E-06  0.4164E-07  0.2781E-02  0.2433E+01  0.0000E+00  0.4866E+01  0.0000E+00  0.7299E+01  0.0000E+00  0.0000E+00  0.0000E+00  0.0000E+00  0.0000E+00  0.7299E+01  0.0000E+00  0.0000E+00  0.0000E+00  0.0000E+00  0.0000E+00  0.0000E+00  0.0000E+00  0.0000E+00  0.0000E+00  0.0000E+00  0.0000E+00  0.0000E+00  0.0000E+00  0.0000E+00  0.0000E+00  0.0000E+00  0.0000E+00  0.0000E+00  0.0000E+00  0.0000E+00  0.0000E+00  0.0000E+00  0.0000E+00  0.0000E+00
REACH   41        0     1  0.2326E+03  0.2684E-05  0.4168E-06  0.0000E+00  0.2684E-05  0.2166E-06  0.4892E-07  0.1084E-01  0.7209E+00  0.0000E+00  0.1442E+01  0.0000E+00  0.2163E+01  0.0000E+00  0.0000E+00  0.0000E+00  0.0000E+00  0.0000E+00  0.2163E+01  0.0000E+00  0.0000E+00  0.0000E+00  0.0000E+00  0.0000E+00  0.0000E+00  0.0000E+00  0.0000E+00  0.0000E+00  0.0000E+00  0.0000E+00  0.0000E+00  0.0000E+00  0.0000E+00  0.0000E+00  0.0000E+00  0.0000E+00  0.0000E+00  0.0000E+00  0.0000E+00  0.0000E+00  0.0000E+00  0.0000E+00  0.0000E+00
REACH    1        0     2  0.1105E+05  0.1064E-05  0.0000E+00  0.0000E+00  0.1064E-05  0.8685E-07  0.0000E+00  0.0000E+00  0.2675E+00  0.0000E+00  0.5350E+00  0.0000E+00  0.8025E+00  0.0000E+00  0.0000E+00  0.0000E+00  0.0000E+00  0.0000E+00  0.8025E+00  0.0000E+00  0.0000E+00  0.0000E+00  0.0000E+00  0.0000E+00  0.0000E+00  0.0000E+00  0.0000E+00  0.0000E+00  0.0000E+00  0.0000E+00  0.0000E+00  0.0000E+00  0.0000E+00  0.0000E+00  0.0000E+00  0.0000E+00  0.0000E+00  0.0000E+00  0.0000E+00  0.0000E+00  0.0000E+00  0.0000E+00  0.0000E+00
REACH    2        0     2  0.2330E+03  0.2692E-05  0.0000E+00  0.0000E+00  0.2692E-05  0.2319E-06  0.0000E+00  0.0000E+00  0.6754E+00  0.0000E+00  0.1351E+01  0.0000E+00  0.2026E+01  0.0000E+00  0.0000E+00  0.0000E+00  0.0000E+00  0.0000E+00  0.2026E+01  0.0000E+00  0.0000E+00  0.0000E+00  0.0000E+00  0.0000E+00  0.0000E+00  0.0000E+00  0.0000E+00  0.0000E+00  0.0000E+00  0.0000E+00  0.0000E+00  0.0000E+00  0.0000E+00  0.0000E+00  0.0000E+00  0.0000E+00  0.0000E+00  0.0000E+00  0.0000E+00  0.0000E+00  0.0000E+00  0.0000E+00  0.0000E+00
REACH    3        0     2  0.1073E+05  0.4402E-05  0.0000E+00  0.0000E+00  0.4402E-05  0.2610E-06  0.0000E+00  0.0000E+00  0.1103E+01  0.0000E+00  0.2206E+01  0.0000E+00  0.3309E+01  0.0000E+00  0.0000E+00  0.0000E+00  0.0000E+00  0.0000E+00  0.3309E+01  0.0000E+00  0.0000E+00  0.0000E+00  0.0000E+00  0.0000E+00  0.0000E+00  0.0000E+00  0.0000E+00  0.0000E+00  0.0000E+00  0.0000E+00  0.0000E+00  0.0000E+00  0.0000E+00  0.0000E+00  0.0000E+00  0.0000E+00  0.0000E+00  0.0000E+00  0.0000E+00  0.0000E+00  0.0000E+00  0.0000E+00  0.0000E+00
REACH    4        0     2  0.9239E+04  0.1760E-06  0.0000E+00  0.0000E+00  0.1760E-06  0.8700E-07  0.0000E+00  0.0000E+00  0.4411E-01  0.0000E+00  0.8821E-01  0.0000E+00  0.1323E+00  0.0000E+00  0.0000E+00  0.0000E+00  0.0000E+00  0.0000E+00  0.1323E+00  0.0000E+00  0.0000E+00  0.0000E+00  0.0000E+00  0.0000E+00  0.0000E+00  0.0000E+00  0.0000E+00  0.0000E+00  0.0000E+00  0.0000E+00  0.0000E+00  0.0000E+00  0.0000E+00  0.0000E+00  0.0000E+00  0.0000E+00  0.0000E+00  0.0000E+00  0.0000E+00  0.0000E+00  0.0000E+00  0.0000E+00  0.0000E+00
REACH    5        0     2  0.2104E+03  0.2434E-05  0.0000E+00  0.0000E+00  0.2434E-05  0.8694E-07  0.0000E+00  0.0000E+00  0.6103E+00  0.0000E+00  0.1221E+01  0.0000E+00  0.1831E+01  0.0000E+00  0.0000E+00  0.0000E+00  0.0000E+00  0.0000E+00  0.1831E+01  0.0000E+00  0.0000E+00  0.0000E+00  0.0000E+00  0.0000E+00  0.0000E+00  0.0000E+00  0.0000E+00  0.0000E+00  0.0000E+00  0.0000E+00  0.0000E+00  0.0000E+00  0.0000E+00  0.0000E+00  0.0000E+00  0.0000E+00  0.0000E+00  0.0000E+00  0.0000E+00  0.0000E+00  0.0000E+00  0.0000E+00  0.0000E+00
REACH    6        0     2  0.1106E+04  0.7584E-06  0.0000E+00  0.0000E+00  0.7584E-06  0.1450E-06  0.0000E+00  0.0000E+00  0.1900E+00  0.0000E+00  0.3801E+00  0.0000E+00  0.5701E+00  0.0000E+00  0.0000E+00  0.0000E+00  0.0000E+00  0.0000E+00  0.5701E+00  0.0000E+00  0.0000E+00  0.0000E+00  0.0000E+00  0.0000E+00  0.0000E+00  0.0000E+00  0.0000E+00  0.0000E+00  0.0000E+00  0.0000E+00  0.0000E+00  0.0000E+00  0.0000E+00  0.0000E+00  0.0000E+00  0.0000E+00  0.0000E+00  0.0000E+00  0.0000E+00  0.0000E+00  0.0000E+00  0.0000E+00  0.0000E+00
REACH    7        0     2  0.4338E+03  0.5005E-05  0.0000E+00  0.0000E+00  0.5005E-05  0.8675E-07  0.0000E+00  0.0000E+00  0.1258E+01  0.0000E+00  0.2516E+01  0.0000E+00  0.3774E+01  0.0000E+00  0.0000E+00  0.0000E+00  0.0000E+00  0.0000E+00  0.3774E+01  0.0000E+00  0.0000E+00  0.0000E+00  0.0000E+00  0.0000E+00  0.0000E+00  0.0000E+00  0.0000E+00  0.0000E+00  0.0000E+00  0.0000E+00  0.0000E+00  0.0000E+00  0.0000E+00  0.0000E+00  0.0000E+00  0.0000E+00  0.0000E+00  0.0000E+00  0.0000E+00  0.0000E+00  0.0000E+00  0.0000E+00  0.0000E+00
REACH    8        0     2  0.6069E+03  0.4762E-06  0.0000E+00  0.0000E+00  0.4762E-06  0.1160E-06  0.0000E+00  0.0000E+00  0.1193E+00  0.0000E+00  0.2386E+00  0.0000E+00  0.3580E+00  0.0000E+00  0.0000E+00  0.0000E+00  0.0000E+00  0.0000E+00  0.3580E+00  0.0000E+00  0.0000E+00  0.0000E+00  0.0000E+00  0.0000E+00  0.0000E+00  0.0000E+00  0.0000E+00  0.0000E+00  0.0000E+00  0.0000E+00  0.0000E+00  0.0000E+00  0.0000E+00  0.0000E+00  0.0000E+00  0.0000E+00  0.0000E+00  0.0000E+00  0.0000E+00  0.0000E+00  0.0000E+00  0.0000E+00  0.0000E+00
REACH    9        0     2  0.1884E+03  0.2175E-05  0.0000E+00  0.0000E+00  0.2175E-05  0.5788E-07  0.0000E+00  0.0000E+00  0.5465E+00  0.0000E+00  0.1093E+01  0.0000E+00  0.1640E+01  0.0000E+00  0.0000E+00  0.0000E+00  0.0000E+00  0.0000E+00  0.1640E+01  0.0000E+00  0.0000E+00  0.0000E+00  0.0000E+00  0.0000E+00  0.0000E+00  0.0000E+00  0.0000E+00  0.0000E+00  0.0000E+00  0.0000E+00  0.0000E+00  0.0000E+00  0.0000E+00  0.0000E+00  0.0000E+00  0.0000E+00  0.0000E+00  0.0000E+00  0.0000E+00  0.0000E+00  0.0000E+00  0.0000E+00  0.0000E+00
REACH   10        0     2  0.9013E+04  0.5109E-05  0.0000E+00  0.0000E+00  0.5109E-05  0.1740E-06  0.0000E+00  0.0000E+00  0.1280E+01  0.0000E+00  0.2561E+01  0.0000E+00  0.3841E+01  0.0000E+00  0.0000E+00  0.0000E+00  0.0000E+00  0.0000E+00  0.3841E+01  0.0000E+00  0.0000E+00  0.0000E+00  0.0000E+00  0.0000E+00  0.0000E+00  0.0000E+00  0.0000E+00  0.0000E+00  0.0000E+00  0.0000E+00  0.0000E+00  0.0000E+00  0.0000E+00  0.0000E+00  0.0000E+00  0.0000E+00  0.0000E+00  0.0000E+00  0.0000E+00  0.0000E+00  0.0000E+00  0.0000E+00  0.0000E+00
REACH   11        0     2  0.2665E+03  0.3082E-05  0.0000E+00  0.0000E+00  0.3082E-05  0.5795E-07  0.0000E+00  0.0000E+00  0.7730E+00  0.0000E+00  0.1546E+01  0.0000E+00  0.2319E+01  0.0000E+00  0.0000E+00  0.0000E+00  0.0000E+00  0.0000E+00  0.2319E+01  0.0000E+00  0.0000E+00  0.0000E+00  0.0000E+00  0.0000E+00  0.0000E+00  0.0000E+00  0.0000E+00  0.0000E+00  0.0000E+00  0.0000E+00  0.0000E+00  0.0000E+00  0.0000E+00  0.0000E+00  0.0000E+00  0.0000E+00  0.0000E+00  0.0000E+00  0.0000E+00  0.0000E+00  0.0000E+00  0.0000E+00  0.0000E+00
REACH   12        0     2  0.3773E+03  0.4361E-05  0.0000E+00  0.0000E+00  0.4361E-05  0.1449E-06  0.0000E+00  0.0000E+00  0.1094E+01  0.0000E+00  0.2189E+01  0.0000E+00  0.3283E+01  0.0000E+00  0.0000E+00  0.0000E+00  0.0000E+00  0.0000E+00  0.3283E+01  0.0000E+00  0.0000E+00  0.0000E+00  0.0000E+00  0.0000E+00  0.0000E+00  0.0000E+00  0.0000E+00  0.0000E+00  0.0000E+00  0.0000E+00  0.0000E+00  0.0000E+00  0.0000E+00  0.0000E+00  0.0000E+00  0.0000E+00  0.0000E+00  0.0000E+00  0.0000E+00  0.0000E+00  0.0000E+00  0.0000E+00  0.0000E+00
REACH   13        0     2  0.8305E+04  0.1163E-05  0.0000E+00  0.0000E+00  0.1163E-05  0.5800E-07  0.0000E+00  0.0000E+00  0.2914E+00  0.0000E+00  0.5828E+00  0.0000E+00  0.8741E+00  0.0000E+00  0.0000E+00  0.0000E+00  0.0000E+00  0.0000E+00  0.8741E+00  0.0000E+00  0.0000E+00  0.0000E+00  0.0000E+00  0.0000E+00  0.0000E+00  0.0000E+00  0.0000E+00  0.0000E+00  0.0000E+00  0.0000E+00  0.0000E+00  0.0000E+00  0.0000E+00  0.0000E+00  0.0000E+00  0.0000E+00  0.0000E+00  0.0000E+00  0.0000E+00  0.0000E+00  0.0000E+00  0.0000E+00  0.0000E+00
REACH   14        0     2  0.4059E+03  0.4698E-05  0.0000E+00  0.0000E+00  0.4698E-05  0.1450E-06  0.0000E+00  0.0000E+00  0.1177E+01  0.0000E+00  0.2354E+01  0.0000E+00  0.3532E+01  0.0000E+00  0.0000E+00  0.0000E+00  0.0000E+00  0.0000E+00  0.3532E+01  0.0000E+00  0.0000E+00  0.0000E+00  0.0000E+00  0.0000E+00  0.0000E+00  0.0000E+00  0.0000E+00  0.0000E+00  0.0000E+00  0.0000E+00  0.0000E+00  0.0000E+00  0.0000E+00  0.0000E+00  0.0000E+00  0.0000E+00  0.0000E+00  0.0000E+00  0.0000E+00  0.0000E+00  0.0000E+00  0.0000E+00  0.0000E+00
REACH   15        0     2  0.7799E+04  0.2466E-05  0.0000E+00  0.0000E+00  0.2466E-05  0.2690E-06  0.0000E+00  0.0000E+00  0.2710E-01  0.0000E+00  0.5420E-01  0.0000E+00  0.8130E-01  0.0000E+00  0.0000E+00  0.0000E+00  0.0000E+00  0.0000E+00  0.8130E-01  0.0000E+00  0.0000E+00  0.0000E+00  0.0000E+00  0.0000E+00  0.0000E+00  0.0000E+00  0.0000E+00  0.0000E+00  0.0000E+00  0.0000E+00  0.0000E+00  0.0000E+00  0.0000E+00  0.0000E+00  0.0000E+00  0.0000E+00  0.0000E+00  0.0000E+00  0.0000E+00  0.0000E+00  0.0000E+00  0.0000E+00  0.0000E+00
REACH   16        0     2  0.1961E+03  0.2270E-05  0.4882E-06  0.0000E+00  0.2270E-05  0.1740E-06  0.6600E-07  0.2220E-01  0.5688E+00  0.0000E+00  0.1138E+01  0.0000E+00  0.1707E+01  0.0000E+00  0.0000E+00  0.0000E+00  0.0000E+00  0.0000E+00  0.1707E+01  0.0000E+00  0.0000E+00  0.0000E+00  0.0000E+00  0.0000E+00  0.0000E+00  0.0000E+00  0.0000E+00  0.0000E+00  0.0000E+00  0.0000E+00  0.0000E+00  0.0000E+00  0.0000E+00  0.0000E+00  0.0000E+00  0.0000E+00  0.0000E+00  0.0000E+00  0.0000E+00  0.0000E+00  0.0000E+00  0.0000E+00  0.0000E+00
REACH   17        0     2  0.7593E+04  0.4912E-05  0.1870E-05  0.0000E+00  0.4912E-05  0.1440E-06  0.0000E+00  0.0000E+00  0.6178E+00  0.0000E+00  0.1236E+01  0.0000E+00  0.1853E+01  0.0000E+00  0.0000E+00  0.0000E+00  0.0000E+00  0.0000E+00  0.1853E+01  0.0000E+00  0.0000E+00  0.0000E+00  0.0000E+00  0.0000E+00  0.0000E+00  0.0000E+00  0.0000E+00  0.0000E+00  0.0000E+00  0.0000E+00  0.0000E+00  0.0000E+00  0.0000E+00  0.0000E+00  0.0000E+00  0.0000E+00  0.0000E+00  0.0000E+00  0.0000E+00  0.0000E+00  0.0000E+00  0.0000E+00  0.0000E+00
REACH   18        0     2  0.7187E+04  0.4867E-05  0.1966E-05  0.0000E+00  0.4867E-05  0.2000E-06  0.0000E+00  0.0000E+00  0.4713E+00  0.0000E+00  0.9426E+00  0.0000E+00  0.1414E+01  0.0000E+00  0.0000E+00  0.0000E+00  0.0000E+00  0.0000E+00  0.1414E+01  0.0000E+00  0.0000E+00  0.0000E+00  0.0000E+00  0.0000E+00  0.0000E+00  0.0000E+00  0.0000E+00  0.0000E+00  0.0000E+00  0.0000E+00  0.0000E+00  0.0000E+00  0.0000E+00  0.0000E+00  0.0000E+00  0.0000E+00  0.0000E+00  0.0000E+00  0.0000E+00  0.0000E+00  0.0000E+00  0.0000E+00  0.0000E+00
REACH   19        0     2  0.6844E+04  0.5064E-05  0.2437E-05  0.0000E+00  0.5064E-05  0.8500E-07  0.0000E+00  0.0000E+00  0.3281E+00  0.0000E+00  0.6562E+00  0.0000E+00  0.9843E+00  0.0000E+00  0.0000E+00  0.0000E+00  0.0000E+00  0.0000E+00  0.9843E+00  0.0000E+00  0.0000E+00  0.0000E+00  0.0000E+00  0.0000E+00  0.0000E+00  0.0000E+00  0.0000E+00  0.0000E+00  0.0000E+00  0.0000E+00  0.0000E+00  0.0000E+00  0.0000E+00  0.0000E+00  0.0000E+00  0.0000E+00  0.0000E+00  0.0000E+00  0.0000E+00  0.0000E+00  0.0000E+00  0.0000E+00  0.0000E+00
REACH   20        0     2  0.1810E+03  0.2094E-05  0.5492E-06  0.0000E+00  0.2094E-05  0.2900E-06  0.1300E-06  0.3981E-01  0.5248E+00  0.0000E+00  0.1050E+01  0.0000E+00  0.1574E+01  0.0000E+00  0.0000E+00  0.0000E+00  0.0000E+00  0.0000E+00  0.1574E+01  0.0000E+00  0.0000E+00  0.0000E+00  0.0000E+00  0.0000E+00  0.0000E+00  0.0000E+00  0.0000E+00  0.0000E+00  0.0000E+00  0.0000E+00  0.0000E+00  0.0000E+00  0.0000E+00  0.0000E+00  0.0000E+00  0.0000E+00  0.0000E+00  0.0000E+00  0.0000E+00  0.0000E+00  0.0000E+00  0.0000E+00  0.0000E+00
REACH   21        0     2  0.1930E+03  0.2234E-05  0.4805E-06  0.0000E+00  0.2234E-05  0.1450E-06  0.5500E-07  0.1880E-01  0.5598E+00  0.0000E+00  0.1120E+01  0.0000E+00  0.1679E+01  0.0000E+00  0.0000E+00  0.0000E+00  0.0000E+00  0.0000E+00  0.1679E+01  0.0000E+00  0.0000E+00  0.0000E+00  0.0000E+00  0.0000E+00  0.0000E+00  0.0000E+00  0.0000E+00  0.0000E+00  0.0000E+00  0.0000E+00  0.0000E+00  0.0000E+00  0.0000E+00  0.0000E+00  0.0000E+00  0.0000E+00  0.0000E+00  0.0000E+00  0.0000E+00  0.0000E+00  0.0000E+00  0.0000E+00  0.0000E+00
REACH   22        0     2  0.2531E+03  0.2929E-05  0.6650E-06  0.0000E+00  0.2929E-05  0.3190E-06  0.1320E-06  0.3754E-01  0.7341E+00  0.0000E+00  0.1468E+01  0.0000E+00  0.2202E+01  0.0000E+00  0.0000E+00  0.0000E+00  0.0000E+00  0.0000E+00  0.2202E+01  0.0000E+00  0.0000E+00  0.0000E+00  0.0000E+00  0.0000E+00  0.0000E+00  0.0000E+00  0.0000E+00  0.0000E+00  0.0000E+00  0.0000E+00  0.0000E+00  0.0000E+00  0.0000E+00  0.0000E+00  0.0000E+00  0.0000E+00  0.0000E+00  0.0000E+00  0.0000E+00  0.0000E+00  0.0000E+00  0.0000E+00  0.0000E+00
REACH   23        0     2  0.6477E+04  0.8603E-05  0.3089E-05  0.0000E+00  0.8603E-05  0.1300E-06  0.0000E+00  0.0000E+00  0.1207E+01  0.0000E+00  0.2413E+01  0.0000E+00  0.3620E+01  0.0000E+00  0.0000E+00  0.0000E+00  0.0000E+00  0.0000E+00  0.3620E+01  0.0000E+00  0.0000E+00  0.0000E+00  0.0000E+00  0.0000E+00  0.0000E+00  0.0000E+00  0.0000E+00  0.0000E+00  0.0000E+00  0.0000E+00  0.0000E+00  0.0000E+00  0.0000E+00  0.0000E+00  0.0000E+00  0.0000E+00  0.0000E+00  0.0000E+00  0.0000E+00  0.0000E+00  0.0000E+00  0.0000E+00  0.0000E+00
REACH   24        0     2  0.1506E+03  0.1743E-05  0.4768E-06  0.0000E+00  0.1743E-05  0.3190E-06  0.1430E-06  0.6095E-01  0.4367E+00  0.0000E+00  0.8734E+00  0.0000E+00  0.1310E+01  0.0000E+00  0.0000E+00  0.0000E+00  0.0000E+00  0.0000E+00  0.1310E+01  0.0000E+00  0.0000E+00  0.0000E+00  0.0000E+00  0.0000E+00  0.0000E+00  0.0000E+00  0.0000E+00  0.0000E+00  0.0000E+00  0.0000E+00  0.0000E+00  0.0000E+00  0.0000E+00  0.0000E+00  0.0000E+00  0.0000E+00  0.0000E+00  0.0000E+00  0.0000E+00  0.0000E+00  0.0000E+00  0.0000E+00  0.0000E+00
REACH   25        0     2  0.5911E+04  0.7935E-05  0.3311E-05  0.0000E+00  0.7935E-05  0.1080E-06  0.0000E+00  0.0000E+00  0.7981E+00  0.0000E+00  0.1596E+01  0.0000E+00  0.2394E+01  0.0000E+00  0.0000E+00  0.0000E+00  0.0000E+00  0.0000E+00  0.2394E+01  0.0000E+00  0.0000E+00  0.0000E+00  0.0000E+00  0.0000E+00  0.0000E+00  0.0000E+00  0.0000E+00  0.0000E+00  0.0000E+00  0.0000E+00  0.0000E+00  0.0000E+00  0.0000E+00  0.0000E+00  0.0000E+00  0.0000E+00  0.0000E+00  0.0000E+00  0.0000E+00  0.0000E+00  0.0000E+00  0.0000E+00  0.0000E+00
REACH   26        0     2  0.4609E+04  0.9188E-05  0.3128E-05  0.0000E+00  0.9188E-05  0.1680E-06  0.0000E+00  0.0000E+00  0.1443E+01  0.0000E+00  0.2887E+01  0.0000E+00  0.4330E+01  0.0000E+00  0.0000E+00  0.0000E+00  0.0000E+00  0.0000E+00  0.4330E+01  0.0000E+00  0.0000E+00  0.0000E+00  0.0000E+00  0.0000E+00  0.0000E+00  0.0000E+00  0.0000E+00  0.0000E+00  0.0000E+00  0.0000E+00  0.0000E+00  0.0000E+00  0.0000E+00  0.0000E+00  0.0000E+00  0.0000E+00  0.0000E+00  0.0000E+00  0.0000E+00  0.0000E+00  0.0000E+00  0.0000E+00  0.0000E+00
REACH   27        0     2  0.3778E+03  0.4364E-05  0.9385E-06  0.0000E+00  0.4364E-05  0.1159E-06  0.4395E-07  0.7689E-02  0.1096E+01  0.0000E+00  0.2192E+01  0.0000E+00  0.3287E+01  0.0000E+00  0.0000E+00  0.0000E+00  0.0000E+00  0.0000E+00  0.3287E+01  0.0000E+00  0.0000E+00  0.0000E+00  0.0000E+00  0.0000E+00  0.0000E+00  0.0000E+00  0.0000E+00  0.0000E+00  0.0000E+00  0.0000E+00  0.0000E+00  0.0000E+00  0.0000E+00  0.0000E+00  0.0000E+00  0.0000E+00  0.0000E+00  0.0000E+00  0.0000E+00  0.0000E+00  0.0000E+00  0.0000E+00  0.0000E+00
REACH   28        0     2  0.1027E+04  0.4125E-05  0.1621E-05  0.0000E+00  0.4125E-05  0.2160E-06  0.0000E+00  0.0000E+00  0.5014E+00  0.0000E+00  0.1003E+01  0.0000E+00  0.1504E+01  0.0000E+00  0.0000E+00  0.0000E+00  0.0000E+00  0.0000E+00  0.1504E+01  0.0000E+00  0.0000E+00  0.0000E+00  0.0000E+00  0.0000E+00  0.0000E+00  0.0000E+00  0.0000E+00  0.0000E+00  0.0000E+00  0.0000E+00  0.0000E+00  0.0000E+00  0.0000E+00  0.0000E+00  0.0000E+00  0.0000E+00  0.0000E+00  0.0000E+00  0.0000E+00  0.0000E+00  0.0000E+00  0.0000E+00  0.0000E+00
REACH   29        0     2  0.3915E+04  0.7053E-05  0.2928E-05  0.0000E+00  0.7053E-05  0.8998E-07  0.0000E+00  0.0000E+00  0.7289E+00  0.0000E+00  0.1458E+01  0.0000E+00  0.2187E+01  0.0000E+00  0.0000E+00  0.0000E+00  0.0000E+00  0.0000E+00  0.2187E+01  0.0000E+00  0.0000E+00  0.0000E+00  0.0000E+00  0.0000E+00  0.0000E+00  0.0000E+00  0.0000E+00  0.0000E+00  0.0000E+00  0.0000E+00  0.0000E+00  0.0000E+00  0.0000E+00  0.0000E+00  0.0000E+00  0.0000E+00  0.0000E+00  0.0000E+00  0.0000E+00  0.0000E+00  0.0000E+00  0.0000E+00  0.0000E+00
REACH   30        0     2  0.1959E+03  0.2267E-05  0.4993E-06  0.0000E+00  0.2267E-05  0.1740E-06  0.7200E-07  0.3311E-01  0.5682E+00  0.0000E+00  0.1136E+01  0.0000E+00  0.1705E+01  0.0000E+00  0.0000E+00  0.0000E+00  0.0000E+00  0.0000E+00  0.1705E+01  0.0000E+00  0.0000E+00  0.0000E+00  0.0000E+00  0.0000E+00  0.0000E+00  0.0000E+00  0.0000E+00  0.0000E+00  0.0000E+00  0.0000E+00  0.0000E+00  0.0000E+00  0.0000E+00  0.0000E+00  0.0000E+00  0.0000E+00  0.0000E+00  0.0000E+00  0.0000E+00  0.0000E+00  0.0000E+00  0.0000E+00  0.0000E+00
REACH   31        0     2  0.4764E+03  0.5512E-05  0.1186E-05  0.0000E+00  0.5512E-05  0.1450E-06  0.5499E-07  0.7616E-02  0.1382E+01  0.0000E+00  0.2763E+01  0.0000E+00  0.4145E+01  0.0000E+00  0.0000E+00  0.0000E+00  0.0000E+00  0.0000E+00  0.4145E+01  0.0000E+00  0.0000E+00  0.0000E+00  0.0000E+00  0.0000E+00  0.0000E+00  0.0000E+00  0.0000E+00  0.0000E+00  0.0000E+00  0.0000E+00  0.0000E+00  0.0000E+00  0.0000E+00  0.0000E+00  0.0000E+00  0.0000E+00  0.0000E+00  0.0000E+00  0.0000E+00  0.0000E+00  0.0000E+00  0.0000E+00  0.0000E+00
REACH   32        0     2  0.3369E+04  0.1021E-04  0.3411E-05  0.0000E+00  0.1021E-04  0.1257E-06  0.0000E+00  0.0000E+00  0.1679E+01  0.0000E+00  0.3357E+01  0.0000E+00  0.5036E+01  0.0000E+00  0.0000E+00  0.0000E+00  0.0000E+00  0.0000E+00  0.5036E+01  0.0000E+00  0.0000E+00  0.0000E+00  0.0000E+00  0.0000E+00  0.0000E+00  0.0000E+00  0.0000E+00  0.0000E+00  0.0000E+00  0.0000E+00  0.0000E+00  0.0000E+00  0.0000E+00  0.0000E+00  0.0000E+00  0.0000E+00  0.0000E+00  0.0000E+00  0.0000E+00  0.0000E+00  0.0000E+00  0.0000E+00  0.0000E+00
REACH   33        0     2  0.2952E+03  0.3417E-05  0.7348E-06  0.0000E+00  0.3417E-05  0.2320E-06  0.8800E-07  0.1966E-01  0.8561E+00  0.0000E+00  0.1712E+01  0.0000E+00  0.2568E+01  0.0000E+00  0.0000E+00  0.0000E+00  0.0000E+00  0.0000E+00  0.2568E+01  0.0000E+00  0.0000E+00  0.0000E+00  0.0000E+00  0.0000E+00  0.0000E+00  0.0000E+00  0.0000E+00  0.0000E+00  0.0000E+00  0.0000E+00  0.0000E+00  0.0000E+00  0.0000E+00  0.0000E+00  0.0000E+00  0.0000E+00  0.0000E+00  0.0000E+00  0.0000E+00  0.0000E+00  0.0000E+00  0.0000E+00  0.0000E+00
REACH   34        0     2  0.2200E+03  0.2547E-05  0.5477E-06  0.0000E+00  0.2547E-05  0.2610E-06  0.9899E-07  0.2968E-01  0.6382E+00  0.0000E+00  0.1276E+01  0.0000E+00  0.1915E+01  0.0000E+00  0.0000E+00  0.0000E+00  0.0000E+00  0.0000E+00  0.1915E+01  0.0000E+00  0.0000E+00  0.0000E+00  0.0000E+00  0.0000E+00  0.0000E+00  0.0000E+00  0.0000E+00  0.0000E+00  0.0000E+00  0.0000E+00  0.0000E+00  0.0000E+00  0.0000E+00  0.0000E+00  0.0000E+00  0.0000E+00  0.0000E+00  0.0000E+00  0.0000E+00  0.0000E+00  0.0000E+00  0.0000E+00  0.0000E+00
REACH   35        0     2  0.2570E+04  0.1044E-04  0.3014E-05  0.0000E+00  0.1044E-04  0.1256E-06  0.0000E+00  0.0000E+00  0.1932E+01  0.0000E+00  0.3864E+01  0.0000E+00  0.5796E+01  0.0000E+00  0.0000E+00  0.0000E+00  0.0000E+00  0.0000E+00  0.5796E+01  0.0000E+00  0.0000E+00  0.0000E+00  0.0000E+00  0.0000E+00  0.0000E+00  0.0000E+00  0.0000E+00  0.0000E+00  0.0000E+00  0.0000E+00  0.0000E+00  0.0000E+00  0.0000E+00  0.0000E+00  0.0000E+00  0.0000E+00  0.0000E+00  0.0000E+00  0.0000E+00  0.0000E+00  0.0000E+00  0.0000E+00  0.0000E+00
REACH   36        0     2  0.1912E+03  0.2173E-05  0.4673E-06  0.0000E+00  0.2173E-05  0.8633E-07  0.3274E-07  0.1151E-01  0.5546E+00  0.0000E+00  0.1109E+01  0.0000E+00  0.1664E+01  0.0000E+00  0.0000E+00  0.0000E+00  0.0000E+00  0.0000E+00  0.1664E+01  0.0000E+00  0.0000E+00  0.0000E+00  0.0000E+00  0.0000E+00  0.0000E+00  0.0000E+00  0.0000E+00  0.0000E+00  0.0000E+00  0.0000E+00  0.0000E+00  0.0000E+00  0.0000E+00  0.0000E+00  0.0000E+00  0.0000E+00  0.0000E+00  0.0000E+00  0.0000E+00  0.0000E+00  0.0000E+00  0.0000E+00  0.0000E+00
REACH   37        0     2  0.1712E+04  0.3164E-05  0.2351E-05  0.0000E+00  0.3164E-05  0.3189E-07  0.0000E+00  0.0000E+00  0.2101E-02  0.0000E+00  0.4202E-02  0.0000E+00  0.6304E-02  0.0000E+00  0.0000E+00  0.0000E+00  0.0000E+00  0.0000E+00  0.6304E-02  0.0000E+00  0.0000E+00  0.0000E+00  0.0000E+00  0.0000E+00  0.0000E+00  0.0000E+00  0.0000E+00  0.0000E+00  0.0000E+00  0.0000E+00  0.0000E+00  0.0000E+00  0.0000E+00  0.0000E+00  0.0000E+00  0.0000E+00  0.0000E+00  0.0000E+00  0.0000E+00  0.0000E+00  0.0000E+00  0.0000E+00  0.0000E+00
REACH   38        0     2  0.1930E+03  0.2178E-05  0.4683E-06  0.0000E+00  0.2178E-05  0.1438E-06  0.5455E-07  0.1912E-01  0.5593E+00  0.0000E+00  0.1119E+01  0.0000E+00  0.1678E+01  0.0000E+00  0.0000E+00  0.0000E+00  0.0000E+00  0.0000E+00  0.1678E+01  0.0000E+00  0.0000E+00  0.0000E+00  0.0000E+00  0.0000E+00  0.0000E+00  0.0000E+00  0.0000E+00  0.0000E+00  0.0000E+00  0.0000E+00  0.0000E+00  0.0000E+00  0.0000E+00  0.0000E+00  0.0000E+00  0.0000E+00  0.0000E+00  0.0000E+00  0.0000E+00  0.0000E+00  0.0000E+00  0.0000E+00  0.0000E+00
REACH   39        0     2  0.1479E+04  0.8160E-05  0.2579E-05  0.0000E+00  0.8160E-05  0.1078E-06  0.0000E+00  0.0000E+00  0.1452E+01  0.0000E+00  0.2904E+01  0.0000E+00  0.4356E+01  0.0000E+00  0.0000E+00  0.0000E+00  0.0000E+00  0.0000E+00  0.4356E+01  0.0000E+00  0.0000E+00  0.0000E+00  0.0000E+00  0.0000E+00  0.0000E+00  0.0000E+00  0.0000E+00  0.0000E+00  0.0000E+00  0.0000E+00  0.0000E+00  0.0000E+00  0.0000E+00  0.0000E+00  0.0000E+00  0.0000E+00  0.0000E+00  0.0000E+00  0.0000E+00  0.0000E+00  0.0000E+00  0.0000E+00  0.0000E+00
REACH   40        0     2  0.7850E+03  0.8911E-05  0.1916E-05  0.0000E+00  0.8911E-05  0.1725E-06  0.6544E-07  0.5607E-02  0.2276E+01  0.0000E+00  0.4552E+01  0.0000E+00  0.6829E+01  0.0000E+00  0.0000E+00  0.0000E+00  0.0000E+00  0.0000E+00  0.6829E+01  0.0000E+00  0.0000E+00  0.0000E+00  0.0000E+00  0.0000E+00  0.0000E+00  0.0000E+00  0.0000E+00  0.0000E+00  0.0000E+00  0.0000E+00  0.0000E+00  0.0000E+00  0.0000E+00  0.0000E+00  0.0000E+00  0.0000E+00  0.0000E+00  0.0000E+00  0.0000E+00  0.0000E+00  0.0000E+00  0.0000E+00  0.0000E+00
REACH   41        0     2  0.2326E+03  0.2684E-05  0.5773E-06  0.0000E+00  0.2684E-05  0.2027E-06  0.7687E-07  0.2187E-01  0.6744E+00  0.0000E+00  0.1349E+01  0.0000E+00  0.2023E+01  0.0000E+00  0.0000E+00  0.0000E+00  0.0000E+00  0.0000E+00  0.2023E+01  0.0000E+00  0.0000E+00  0.0000E+00  0.0000E+00  0.0000E+00  0.0000E+00  0.0000E+00  0.0000E+00  0.0000E+00  0.0000E+00  0.0000E+00  0.0000E+00  0.0000E+00  0.0000E+00  0.0000E+00  0.0000E+00  0.0000E+00  0.0000E+00  0.0000E+00  0.0000E+00  0.0000E+00  0.0000E+00  0.0000E+00  0.0000E+00
REACH    1        0     3  0.1105E+05  0.1064E-05  0.0000E+00  0.0000E+00  0.1064E-05  0.9284E-07  0.0000E+00  0.0000E+00  0.2859E+00  0.0000E+00  0.5719E+00  0.0000E+00  0.8578E+00  0.0000E+00  0.0000E+00  0.0000E+00  0.0000E+00  0.0000E+00  0.8578E+00  0.0000E+00  0.0000E+00  0.0000E+00  0.0000E+00  0.0000E+00  0.0000E+00  0.0000E+00  0.0000E+00  0.0000E+00  0.0000E+00  0.0000E+00  0.0000E+00  0.0000E+00  0.0000E+00  0.0000E+00  0.0000E+00  0.0000E+00  0.0000E+00  0.0000E+00  0.0000E+00  0.0000E+00  0.0000E+00  0.0000E+00  0.0000E+00
REACH    2        0     3  0.2330E+03  0.2692E-05  0.0000E+00  0.0000E+00  0.2692E-05  0.2479E-06  0.0000E+00  0.0000E+00  0.7219E+00  0.0000E+00  0.1444E+01  0.0000E+00  0.2166E+01  0.0000E+00  0.0000E+00  0.0000E+00  0.0000E+00  0.0000E+00  0.2166E+01  0.0000E+00  0.0000E+00  0.0000E+00  0.0000E+00  0.0000E+00  0.0000E+00  0.0000E+00  0.0000E+00  0.0000E+00  0.0000E+00  0.0000E+00  0.0000E+00  0.0000E+00  0.0000E+00  0.0000E+00  0.0000E+00  0.0000E+00  0.0000E+00  0.0000E+00  0.0000E+00  0.0000E+00  0.0000E+00  0.0000E+00  0.0000E+00
REACH    3        0     3  0.1073E+05  0.4402E-05  0.0000E+00  0.0000E+00  0.4402E-05  0.2790E-06  0.0000E+00  0.0000E+00  0.1179E+01  0.0000E+00  0.2358E+01  0.0000E+00  0.3538E+01  0.0000E+00  0.0000E+00  0.0000E+00  0.0000E+00  0.0000E+00  0.3538E+01  0.0000E+00  0.0000E+00  0.0000E+00  0.0000E+00  0.0000E+00  0.0000E+00  0.0000E+00  0.0000E+00  0.0000E+00  0.0000E+00  0.0000E+00  0.0000E+00  0.0000E+00  0.0000E+00  0.0000E+00  0.0000E+00  0.0000E+00  0.0000E+00  0.0000E+00  0.0000E+00  0.0000E+00  0.0000E+00  0.0000E+00  0.0000E+00
REACH    4        0     3  0.9239E+04  0.1760E-06  0.0000E+00  0.0000E+00  0.1760E-06  0.9300E-07  0.0000E+00  0.0000E+00  0.4715E-01  0.0000E+00  0.9430E-01  0.0000E+00  0.1414E+00  0.0000E+00  0.0000E+00  0.0000E+00  0.0000E+00  0.0000E+00  0.1414E+00  0.0000E+00  0.0000E+00  0.0000E+00  0.0000E+00  0.0000E+00  0.0000E+00  0.0000E+00  0.0000E+00  0.0000E+00  0.0000E+00  0.0000E+00  0.0000E+00  0.0000E+00  0.0000E+00  0.0000E+00  0.0000E+00  0.0000E+00  0.0000E+00  0.0000E+00  0.0000E+00  0.0000E+00  0.0000E+00  0.0000E+00  0.0000E+00
REACH    5        0     3  0.2104E+03  0.2434E-05  0.0000E+00  0.0000E+00  0.2434E-05  0.9294E-07  0.0000E+00  0.0000E+00  0.6524E+00  0.0000E+00  0.1305E+01  0.0000E+00  0.1957E+01  0.0000E+00  0.0000E+00  0.0000E+00  0.0000E+00  0.0000E+00  0.1957E+01  0.0000E+00  0.0000E+00  0.0000E+00  0.0000E+00  0.0000E+00  0.0000E+00  0.0000E+00  0.0000E+00  0.0000E+00  0.0000E+00  0.0000E+00  0.0000E+00  0.0000E+00  0.0000E+00  0.0000E+00  0.0000E+00  0.0000E+00  0.0000E+00  0.0000E+00  0.0000E+00  0.0000E+00  0.0000E+00  0.0000E+00  0.0000E+00
REACH    6        0     3  0.1106E+04  0.7584E-06  0.0000E+00  0.0000E+00  0.7584E-06  0.1550E-06  0.0000E+00  0.0000E+00  0.2031E+00  0.0000E+00  0.4063E+00  0.0000E+00  0.6094E+00  0.0000E+00  0.0000E+00  0.0000E+00  0.0000E+00  0.0000E+00  0.6094E+00  0.0000E+00  0.0000E+00  0.0000E+00  0.0000E+00  0.0000E+00  0.0000E+00  0.0000E+00  0.0000E+00  0.0000E+00  0.0000E+00  0.0000E+00  0.0000E+00  0.0000E+00  0.0000E+00  0.0000E+00  0.0000E+00  0.0000E+00  0.0000E+00  0.0000E+00  0.0000E+00  0.0000E+00  0.0000E+00  0.0000E+00  0.0000E+00
REACH    7        0     3  0.4338E+03  0.5005E-05  0.0000E+00  0.0000E+00  0.5005E-05  0.9273E-07  0.0000E+00  0.0000E+00  0.1345E+01  0.0000E+00  0.2690E+01  0.0000E+00  0.4035E+01  0.0000E+00  0.0000E+00  0.0000E+00  0.0000E+00  0.0000E+00  0.4035E+01  0.0000E+00  0.0000E+00  0.0000E+00  0.0000E+00  0.0000E+00  0.0000E+00  0.0000E+00  0.0000E+00  0.0000E+00  0.0000E+00  0.0000E+00  0.0000E+00  0.0000E+00  0.0000E+00  0.0000E+00  0.0000E+00  0.0000E+00  0.0000E+00  0.0000E+00  0.0000E+00  0.0000E+00  0.0000E+00  0.0000E+00  0.0000E+00
REACH    8        0     3  0.6069E+03  0.4762E-06  0.0000E+00  0.0000E+00  0.4762E-06  0.1240E-06  0.0000E+00  0.0000E+00  0.1276E+00  0.0000E+00  0.2551E+00  0.0000E+00  0.3827E+00  0.0000E+00  0.0000E+00  0.0000E+00  0.0000E+00  0.0000E+00  0.3827E+00  0.0000E+00  0.0000E+00  0.0000E+00  0.0000E+00  0.0000E+00  0.0000E+00  0.0000E+00  0.0000E+00  0.0000E+00  0.0000E+00  0.0000E+00  0.0000E+00  0.0000E+00  0.0000E+00  0.0000E+00  0.0000E+00  0.0000E+00  0.0000E+00  0.0000E+00  0.0000E+00  0.0000E+00  0.0000E+00  0.0000E+00  0.0000E+00
REACH    9        0     3  0.1884E+03  0.2175E-05  0.0000E+00  0.0000E+00  0.2175E-05  0.6187E-07  0.0000E+00  0.0000E+00  0.5842E+00  0.0000E+00  0.1168E+01  0.0000E+00  0.1753E+01  0.0000E+00  0.0000E+00  0.0000E+00  0.0000E+00  0.0000E+00  0.1753E+01  0.0000E+00  0.0000E+00  0.0000E+00  0.0000E+00  0.0000E+00  0.0000E+00  0.0000E+00  0.0000E+00  0.0000E+00  0.0000E+00  0.0000E+00  0.0000E+00  0.0000E+00  0.0000E+00  0.0000E+00  0.0000E+00  0.0000E+00  0.0000E+00  0.0000E+00  0.0000E+00  0.0000E+00  0.0000E+00  0.0000E+00  0.0000E+00
REACH   10        0     3  0.9013E+04  0.5109E-05  0.0000E+00  0.0000E+00  0.5109E-05  0.1860E-06  0.0000E+00  0.0000E+00  0.1369E+01  0.0000E+00  0.2737E+01  0.0000E+00  0.4106E+01  0.0000E+00  0.0000E+00  0.0000E+00  0.0000E+00  0.0000E+00  0.4106E+01  0.0000E+00  0.0000E+00  0.0000E+00  0.0000E+00  0.0000E+00  0.0000E+00  0.0000E+00  0.0000E+00  0.0000E+00  0.0000E+00  0.0000E+00  0.0000E+00  0.0000E+00  0.0000E+00  0.0000E+00  0.0000E+00  0.0000E+00  0.0000E+00  0.0000E+00  0.0000E+00  0.0000E+00  0.0000E+00  0.0000E+00  0.0000E+00
REACH   11        0     3  0.2665E+03  0.3082E-05  0.0000E+00  0.0000E+00  0.3082E-05  0.6194E-07  0.0000E+00  0.0000E+00  0.8263E+00  0.0000E+00  0.1653E+01  0.0000E+00  0.2479E+01  0.0000E+00  0.0000E+00  0.0000E+00  0.0000E+00  0.0000E+00  0.2479E+01  0.0000E+00  0.0000E+00  0.0000E+00  0.0000E+00  0.0000E+00  0.0000E+00  0.0000E+00  0.0000E+00  0.0000E+00  0.0000E+00  0.0000E+00  0.0000E+00  0.0000E+00  0.0000E+00  0.0000E+00  0.0000E+00  0.0000E+00  0.0000E+00  0.0000E+00  0.0000E+00  0.0000E+00  0.0000E+00  0.0000E+00  0.0000E+00
REACH   12        0     3  0.3773E+03  0.4361E-05  0.0000E+00  0.0000E+00  0.4361E-05  0.1549E-06  0.0000E+00  0.0000E+00  0.1170E+01  0.0000E+00  0.2340E+01  0.0000E+00  0.3509E+01  0.0000E+00  0.0000E+00  0.0000E+00  0.0000E+00  0.0000E+00  0.3509E+01  0.0000E+00  0.0000E+00  0.0000E+00  0.0000E+00  0.0000E+00  0.0000E+00  0.0000E+00  0.0000E+00  0.0000E+00  0.0000E+00  0.0000E+00  0.0000E+00  0.0000E+00  0.0000E+00  0.0000E+00  0.0000E+00  0.0000E+00  0.0000E+00  0.0000E+00  0.0000E+00  0.0000E+00  0.0000E+00  0.0000E+00  0.0000E+00
REACH   13        0     3  0.8305E+04  0.1163E-05  0.0000E+00  0.0000E+00  0.1163E-05  0.6200E-07  0.0000E+00  0.0000E+00  0.3115E+00  0.0000E+00  0.6230E+00  0.0000E+00  0.9344E+00  0.0000E+00  0.0000E+00  0.0000E+00  0.0000E+00  0.0000E+00  0.9344E+00  0.0000E+00  0.0000E+00  0.0000E+00  0.0000E+00  0.0000E+00  0.0000E+00  0.0000E+00  0.0000E+00  0.0000E+00  0.0000E+00  0.0000E+00  0.0000E+00  0.0000E+00  0.0000E+00  0.0000E+00  0.0000E+00  0.0000E+00  0.0000E+00  0.0000E+00  0.0000E+00  0.0000E+00  0.0000E+00  0.0000E+00  0.0000E+00
REACH   14        0     3  0.4059E+03  0.4698E-05  0.0000E+00  0.0000E+00  0.4698E-05  0.1550E-06  0.0000E+00  0.0000E+00  0.1258E+01  0.0000E+00  0.2517E+01  0.0000E+00  0.3775E+01  0.0000E+00  0.0000E+00  0.0000E+00  0.0000E+00  0.0000E+00  0.3775E+01  0.0000E+00  0.0000E+00  0.0000E+00  0.0000E+00  0.0000E+00  0.0000E+00  0.0000E+00  0.0000E+00  0.0000E+00  0.0000E+00  0.0000E+00  0.0000E+00  0.0000E+00  0.0000E+00  0.0000E+00  0.0000E+00  0.0000E+00  0.0000E+00  0.0000E+00  0.0000E+00  0.0000E+00  0.0000E+00  0.0000E+00  0.0000E+00
REACH   15        0     3  0.7799E+04  0.2181E-06  0.0000E+00  0.0000E+00  0.2181E-06  0.2230E-06  0.0000E+00  0.0000E+00  0.2897E-01  0.0000E+00  0.5794E-01  0.0000E+00  0.8690E-01  0.0000E+00  0.0000E+00  0.0000E+00  0.0000E+00  0.0000E+00  0.8690E-01  0.0000E+00  0.0000E+00  0.0000E+00  0.0000E+00  0.0000E+00  0.0000E+00  0.0000E+00  0.0000E+00  0.0000E+00  0.0000E+00  0.0000E+00  0.0000E+00  0.0000E+00  0.0000E+00  0.0000E+00  0.0000E+00  0.0000E+00  0.0000E+00  0.0000E+00  0.0000E+00  0.0000E+00  0.0000E+00  0.0000E+00  0.0000E+00
REACH   16        0     3  0.1961E+03  0.2270E-05  0.3098E-07  0.0000E+00  0.2270E-05  0.1860E-06  0.6000E-08  0.2333E-02  0.6081E+00  0.0000E+00  0.1216E+01  0.0000E+00  0.1824E+01  0.0000E+00  0.0000E+00  0.0000E+00  0.0000E+00  0.0000E+00  0.1824E+01  0.0000E+00  0.0000E+00  0.0000E+00  0.0000E+00  0.0000E+00  0.0000E+00  0.0000E+00  0.0000E+00  0.0000E+00  0.0000E+00  0.0000E+00  0.0000E+00  0.0000E+00  0.0000E+00  0.0000E+00  0.0000E+00  0.0000E+00  0.0000E+00  0.0000E+00  0.0000E+00  0.0000E+00  0.0000E+00  0.0000E+00  0.0000E+00
REACH   17        0     3  0.7593E+04  0.2573E-05  0.7900E-07  0.0000E+00  0.2573E-05  0.2400E-06  0.0000E+00  0.0000E+00  0.6604E+00  0.0000E+00  0.1321E+01  0.0000E+00  0.1981E+01  0.0000E+00  0.0000E+00  0.0000E+00  0.0000E+00  0.0000E+00  0.1981E+01  0.0000E+00  0.0000E+00  0.0000E+00  0.0000E+00  0.0000E+00  0.0000E+00  0.0000E+00  0.0000E+00  0.0000E+00  0.0000E+00  0.0000E+00  0.0000E+00  0.0000E+00  0.0000E+00  0.0000E+00  0.0000E+00  0.0000E+00  0.0000E+00  0.0000E+00  0.0000E+00  0.0000E+00  0.0000E+00  0.0000E+00  0.0000E+00
REACH   18        0     3  0.7187E+04  0.2030E-05  0.7673E-07  0.0000E+00  0.2030E-05  0.3100E-06  0.0000E+00  0.0000E+00  0.5038E+00  0.0000E+00  0.1008E+01  0.0000E+00  0.1511E+01  0.0000E+00  0.0000E+00  0.0000E+00  0.0000E+00  0.0000E+00  0.1511E+01  0.0000E+00  0.0000E+00  0.0000E+00  0.0000E+00  0.0000E+00  0.0000E+00  0.0000E+00  0.0000E+00  0.0000E+00  0.0000E+00  0.0000E+00  0.0000E+00  0.0000E+00  0.0000E+00  0.0000E+00  0.0000E+00  0.0000E+00  0.0000E+00  0.0000E+00  0.0000E+00  0.0000E+00  0.0000E+00  0.0000E+00  0.0000E+00
REACH   19        0     3  0.6844E+04  0.1490E-05  0.9213E-07  0.0000E+00  0.1490E-05  0.1610E-06  0.0000E+00  0.0000E+00  0.3507E+00  0.0000E+00  0.7014E+00  0.0000E+00  0.1052E+01  0.0000E+00  0.0000E+00  0.0000E+00  0.0000E+00  0.0000E+00  0.1052E+01  0.0000E+00  0.0000E+00  0.0000E+00  0.0000E+00  0.0000E+00  0.0000E+00  0.0000E+00  0.0000E+00  0.0000E+00  0.0000E+00  0.0000E+00  0.0000E+00  0.0000E+00  0.0000E+00  0.0000E+00  0.0000E+00  0.0000E+00  0.0000E+00  0.0000E+00  0.0000E+00  0.0000E+00  0.0000E+00  0.0000E+00  0.0000E+00
REACH   20        0     3  0.1810E+03  0.2094E-05  0.5676E-07  0.0000E+00  0.2094E-05  0.3100E-06  0.2000E-07  0.8487E-02  0.5610E+00  0.0000E+00  0.1122E+01  0.0000E+00  0.1683E+01  0.0000E+00  0.0000E+00  0.0000E+00  0.0000E+00  0.0000E+00  0.1683E+01  0.0000E+00  0.0000E+00  0.0000E+00  0.0000E+00  0.0000E+00  0.0000E+00  0.0000E+00  0.0000E+00  0.0000E+00  0.0000E+00  0.0000E+00  0.0000E+00  0.0000E+00  0.0000E+00  0.0000E+00  0.0000E+00  0.0000E+00  0.0000E+00  0.0000E+00  0.0000E+00  0.0000E+00  0.0000E+00  0.0000E+00  0.0000E+00
REACH   21        0     3  0.1930E+03  0.2234E-05  0.3049E-07  0.0000E+00  0.2234E-05  0.1550E-06  0.5000E-08  0.1975E-02  0.5984E+00  0.0000E+00  0.1197E+01  0.0000E+00  0.1795E+01  0.0000E+00  0.0000E+00  0.0000E+00  0.0000E+00  0.0000E+00  0.1795E+01  0.0000E+00  0.0000E+00  0.0000E+00  0.0000E+00  0.0000E+00  0.0000E+00  0.0000E+00  0.0000E+00  0.0000E+00  0.0000E+00  0.0000E+00  0.0000E+00  0.0000E+00  0.0000E+00  0.0000E+00  0.0000E+00  0.0000E+00  0.0000E+00  0.0000E+00  0.0000E+00  0.0000E+00  0.0000E+00  0.0000E+00  0.0000E+00
REACH   22        0     3  0.2531E+03  0.2929E-05  0.4513E-07  0.0000E+00  0.2929E-05  0.3410E-06  0.2200E-07  0.2901E-01  0.7847E+00  0.0000E+00  0.1569E+01  0.0000E+00  0.2354E+01  0.0000E+00  0.0000E+00  0.0000E+00  0.0000E+00  0.0000E+00  0.2354E+01  0.0000E+00  0.0000E+00  0.0000E+00  0.0000E+00  0.0000E+00  0.0000E+00  0.0000E+00  0.0000E+00  0.0000E+00  0.0000E+00  0.0000E+00  0.0000E+00  0.0000E+00  0.0000E+00  0.0000E+00  0.0000E+00  0.0000E+00  0.0000E+00  0.0000E+00  0.0000E+00  0.0000E+00  0.0000E+00  0.0000E+00  0.0000E+00
REACH   23        0     3  0.6477E+04  0.4994E-05  0.1356E-06  0.0000E+00  0.4994E-05  0.1910E-06  0.0000E+00  0.0000E+00  0.1290E+01  0.0000E+00  0.2580E+01  0.0000E+00  0.3869E+01  0.0000E+00  0.0000E+00  0.0000E+00  0.0000E+00  0.0000E+00  0.3869E+01  0.0000E+00  0.0000E+00  0.0000E+00  0.0000E+00  0.0000E+00  0.0000E+00  0.0000E+00  0.0000E+00  0.0000E+00  0.0000E+00  0.0000E+00  0.0000E+00  0.0000E+00  0.0000E+00  0.0000E+00  0.0000E+00  0.0000E+00  0.0000E+00  0.0000E+00  0.0000E+00  0.0000E+00  0.0000E+00  0.0000E+00  0.0000E+00
REACH   24        0     3  0.1506E+03  0.1743E-05  0.3756E-07  0.0000E+00  0.1743E-05  0.3410E-06  0.2200E-07  0.1519E-01  0.4668E+00  0.0000E+00  0.9337E+00  0.0000E+00  0.1400E+01  0.0000E+00  0.0000E+00  0.0000E+00  0.0000E+00  0.0000E+00  0.1400E+01  0.0000E+00  0.0000E+00  0.0000E+00  0.0000E+00  0.0000E+00  0.0000E+00  0.0000E+00  0.0000E+00  0.0000E+00  0.0000E+00  0.0000E+00  0.0000E+00  0.0000E+00  0.0000E+00  0.0000E+00  0.0000E+00  0.0000E+00  0.0000E+00  0.0000E+00  0.0000E+00  0.0000E+00  0.0000E+00  0.0000E+00  0.0000E+00
REACH   25        0     3  0.5911E+04  0.3416E-05  0.1413E-06  0.0000E+00  0.3416E-05  0.1800E-06  0.0000E+00  0.0000E+00  0.8532E+00  0.0000E+00  0.1706E+01  0.0000E+00  0.2560E+01  0.0000E+00  0.0000E+00  0.0000E+00  0.0000E+00  0.0000E+00  0.2560E+01  0.0000E+00  0.0000E+00  0.0000E+00  0.0000E+00  0.0000E+00  0.0000E+00  0.0000E+00  0.0000E+00  0.0000E+00  0.0000E+00  0.0000E+00  0.0000E+00  0.0000E+00  0.0000E+00  0.0000E+00  0.0000E+00  0.0000E+00  0.0000E+00  0.0000E+00  0.0000E+00  0.0000E+00  0.0000E+00  0.0000E+00  0.0000E+00
REACH   26        0     3  0.4609E+04  0.5922E-05  0.1470E-06  0.0000E+00  0.5922E-05  0.2700E-06  0.0000E+00  0.0000E+00  0.1543E+01  0.0000E+00  0.3086E+01  0.0000E+00  0.4629E+01  0.0000E+00  0.0000E+00  0.0000E+00  0.0000E+00  0.0000E+00  0.4629E+01  0.0000E+00  0.0000E+00  0.0000E+00  0.0000E+00  0.0000E+00  0.0000E+00  0.0000E+00  0.0000E+00  0.0000E+00  0.0000E+00  0.0000E+00  0.0000E+00  0.0000E+00  0.0000E+00  0.0000E+00  0.0000E+00  0.0000E+00  0.0000E+00  0.0000E+00  0.0000E+00  0.0000E+00  0.0000E+00  0.0000E+00  0.0000E+00
REACH   27        0     3  0.3778E+03  0.4364E-05  0.5955E-07  0.0000E+00  0.4364E-05  0.1239E-06  0.3995E-08  0.8080E-03  0.1171E+01  0.0000E+00  0.2343E+01  0.0000E+00  0.3514E+01  0.0000E+00  0.0000E+00  0.0000E+00  0.0000E+00  0.0000E+00  0.3514E+01  0.0000E+00  0.0000E+00  0.0000E+00  0.0000E+00  0.0000E+00  0.0000E+00  0.0000E+00  0.0000E+00  0.0000E+00  0.0000E+00  0.0000E+00  0.0000E+00  0.0000E+00  0.0000E+00  0.0000E+00  0.0000E+00  0.0000E+00  0.0000E+00  0.0000E+00  0.0000E+00  0.0000E+00  0.0000E+00  0.0000E+00  0.0000E+00
REACH   28        0     3  0.1027E+04  0.2136E-05  0.8432E-07  0.0000E+00  0.2136E-05  0.3600E-06  0.0000E+00  0.0000E+00  0.5359E+00  0.0000E+00  0.1072E+01  0.0000E+00  0.1608E+01  0.0000E+00  0.0000E+00  0.0000E+00  0.0000E+00  0.0000E+00  0.1608E+01  0.0000E+00  0.0000E+00  0.0000E+00  0.0000E+00  0.0000E+00  0.0000E+00  0.0000E+00  0.0000E+00  0.0000E+00  0.0000E+00  0.0000E+00  0.0000E+00  0.0000E+00  0.0000E+00  0.0000E+00  0.0000E+00  0.0000E+00  0.0000E+00  0.0000E+00  0.0000E+00  0.0000E+00  0.0000E+00  0.0000E+00  0.0000E+00
REACH   29        0     3  0.3915E+04  0.3122E-05  0.1306E-06  0.0000E+00  0.3122E-05  0.1500E-06  0.0000E+00  0.0000E+00  0.7791E+00  0.0000E+00  0.1558E+01  0.0000E+00  0.2337E+01  0.0000E+00  0.0000E+00  0.0000E+00  0.0000E+00  0.0000E+00  0.2337E+01  0.0000E+00  0.0000E+00  0.0000E+00  0.0000E+00  0.0000E+00  0.0000E+00  0.0000E+00  0.0000E+00  0.0000E+00  0.0000E+00  0.0000E+00  0.0000E+00  0.0000E+00  0.0000E+00  0.0000E+00  0.0000E+00  0.0000E+00  0.0000E+00  0.0000E+00  0.0000E+00  0.0000E+00  0.0000E+00  0.0000E+00  0.0000E+00
REACH   30        0     3  0.1959E+03  0.2267E-05  0.3094E-07  0.0000E+00  0.2267E-05  0.1860E-06  0.6000E-08  0.2335E-02  0.6074E+00  0.0000E+00  0.1215E+01  0.0000E+00  0.1822E+01  0.0000E+00  0.0000E+00  0.0000E+00  0.0000E+00  0.0000E+00  0.1822E+01  0.0000E+00  0.0000E+00  0.0000E+00  0.0000E+00  0.0000E+00  0.0000E+00  0.0000E+00  0.0000E+00  0.0000E+00  0.0000E+00  0.0000E+00  0.0000E+00  0.0000E+00  0.0000E+00  0.0000E+00  0.0000E+00  0.0000E+00  0.0000E+00  0.0000E+00  0.0000E+00  0.0000E+00  0.0000E+00  0.0000E+00  0.0000E+00
REACH   31        0     3  0.4764E+03  0.5512E-05  0.7523E-07  0.0000E+00  0.5512E-05  0.1550E-06  0.4999E-08  0.8004E-03  0.1477E+01  0.0000E+00  0.2954E+01  0.0000E+00  0.4431E+01  0.0000E+00  0.0000E+00  0.0000E+00  0.0000E+00  0.0000E+00  0.4431E+01  0.0000E+00  0.0000E+00  0.0000E+00  0.0000E+00  0.0000E+00  0.0000E+00  0.0000E+00  0.0000E+00  0.0000E+00  0.0000E+00  0.0000E+00  0.0000E+00  0.0000E+00  0.0000E+00  0.0000E+00  0.0000E+00  0.0000E+00  0.0000E+00  0.0000E+00  0.0000E+00  0.0000E+00  0.0000E+00  0.0000E+00  0.0000E+00
REACH   32        0     3  0.3369E+04  0.6828E-05  0.1683E-06  0.0000E+00  0.6828E-05  0.2095E-06  0.0000E+00  0.0000E+00  0.1794E+01  0.0000E+00  0.3589E+01  0.0000E+00  0.5383E+01  0.0000E+00  0.0000E+00  0.0000E+00  0.0000E+00  0.0000E+00  0.5383E+01  0.0000E+00  0.0000E+00  0.0000E+00  0.0000E+00  0.0000E+00  0.0000E+00  0.0000E+00  0.0000E+00  0.0000E+00  0.0000E+00  0.0000E+00  0.0000E+00  0.0000E+00  0.0000E+00  0.0000E+00  0.0000E+00  0.0000E+00  0.0000E+00  0.0000E+00  0.0000E+00  0.0000E+00  0.0000E+00  0.0000E+00  0.0000E+00
REACH   33        0     3  0.2952E+03  0.3417E-05  0.4663E-07  0.0000E+00  0.3417E-05  0.2480E-06  0.8000E-08  0.2066E-02  0.9152E+00  0.0000E+00  0.1830E+01  0.0000E+00  0.2746E+01  0.0000E+00  0.0000E+00  0.0000E+00  0.0000E+00  0.0000E+00  0.2746E+01  0.0000E+00  0.0000E+00  0.0000E+00  0.0000E+00  0.0000E+00  0.0000E+00  0.0000E+00  0.0000E+00  0.0000E+00  0.0000E+00  0.0000E+00  0.0000E+00  0.0000E+00  0.0000E+00  0.0000E+00  0.0000E+00  0.0000E+00  0.0000E+00  0.0000E+00  0.0000E+00  0.0000E+00  0.0000E+00  0.0000E+00  0.0000E+00
REACH   34        0     3  0.2200E+03  0.2547E-05  0.3475E-07  0.0000E+00  0.2547E-05  0.2790E-06  0.8999E-08  0.3119E-02  0.6822E+00  0.0000E+00  0.1364E+01  0.0000E+00  0.2047E+01  0.0000E+00  0.0000E+00  0.0000E+00  0.0000E+00  0.0000E+00  0.2047E+01  0.0000E+00  0.0000E+00  0.0000E+00  0.0000E+00  0.0000E+00  0.0000E+00  0.0000E+00  0.0000E+00  0.0000E+00  0.0000E+00  0.0000E+00  0.0000E+00  0.0000E+00  0.0000E+00  0.0000E+00  0.0000E+00  0.0000E+00  0.0000E+00  0.0000E+00  0.0000E+00  0.0000E+00  0.0000E+00  0.0000E+00  0.0000E+00
REACH   35        0     3  0.2570E+04  0.7732E-05  0.1488E-06  0.0000E+00  0.7732E-05  0.2093E-06  0.0000E+00  0.0000E+00  0.2065E+01  0.0000E+00  0.4131E+01  0.0000E+00  0.6196E+01  0.0000E+00  0.0000E+00  0.0000E+00  0.0000E+00  0.0000E+00  0.6196E+01  0.0000E+00  0.0000E+00  0.0000E+00  0.0000E+00  0.0000E+00  0.0000E+00  0.0000E+00  0.0000E+00  0.0000E+00  0.0000E+00  0.0000E+00  0.0000E+00  0.0000E+00  0.0000E+00  0.0000E+00  0.0000E+00  0.0000E+00  0.0000E+00  0.0000E+00  0.0000E+00  0.0000E+00  0.0000E+00  0.0000E+00  0.0000E+00
REACH   36        0     3  0.1912E+03  0.2173E-05  0.2965E-07  0.0000E+00  0.2173E-05  0.9228E-07  0.2977E-08  0.1209E-02  0.5929E+00  0.0000E+00  0.1186E+01  0.0000E+00  0.1779E+01  0.0000E+00  0.0000E+00  0.0000E+00  0.0000E+00  0.0000E+00  0.1779E+01  0.0000E+00  0.0000E+00  0.0000E+00  0.0000E+00  0.0000E+00  0.0000E+00  0.0000E+00  0.0000E+00  0.0000E+00  0.0000E+00  0.0000E+00  0.0000E+00  0.0000E+00  0.0000E+00  0.0000E+00  0.0000E+00  0.0000E+00  0.0000E+00  0.0000E+00  0.0000E+00  0.0000E+00  0.0000E+00  0.0000E+00  0.0000E+00
REACH   37        0     3  0.1712E+04  0.1878E-06  0.7603E-07  0.0000E+00  0.1878E-06  0.5979E-07  0.0000E+00  0.0000E+00  0.2246E-02  0.0000E+00  0.4492E-02  0.0000E+00  0.6738E-02  0.0000E+00  0.0000E+00  0.0000E+00  0.0000E+00  0.0000E+00  0.6738E-02  0.0000E+00  0.0000E+00  0.0000E+00  0.0000E+00  0.0000E+00  0.0000E+00  0.0000E+00  0.0000E+00  0.0000E+00  0.0000E+00  0.0000E+00  0.0000E+00  0.0000E+00  0.0000E+00  0.0000E+00  0.0000E+00  0.0000E+00  0.0000E+00  0.0000E+00  0.0000E+00  0.0000E+00  0.0000E+00  0.0000E+00  0.0000E+00
REACH   38        0     3  0.1930E+03  0.2178E-05  0.2972E-07  0.0000E+00  0.2178E-05  0.1537E-06  0.4959E-08  0.2010E-02  0.5978E+00  0.0000E+00  0.1196E+01  0.0000E+00  0.1794E+01  0.0000E+00  0.0000E+00  0.0000E+00  0.0000E+00  0.0000E+00  0.1794E+01  0.0000E+00  0.0000E+00  0.0000E+00  0.0000E+00  0.0000E+00  0.0000E+00  0.0000E+00  0.0000E+00  0.0000E+00  0.0000E+00  0.0000E+00  0.0000E+00  0.0000E+00  0.0000E+00  0.0000E+00  0.0000E+00  0.0000E+00  0.0000E+00  0.0000E+00  0.0000E+00  0.0000E+00  0.0000E+00  0.0000E+00  0.0000E+00
REACH   39        0     3  0.1479E+04  0.5926E-05  0.1428E-06  0.0000E+00  0.5926E-05  0.1797E-06  0.0000E+00  0.0000E+00  0.1552E+01  0.0000E+00  0.3105E+01  0.0000E+00  0.4657E+01  0.0000E+00  0.0000E+00  0.0000E+00  0.0000E+00  0.0000E+00  0.4657E+01  0.0000E+00  0.0000E+00  0.0000E+00  0.0000E+00  0.0000E+00  0.0000E+00  0.0000E+00  0.0000E+00  0.0000E+00  0.0000E+00  0.0000E+00  0.0000E+00  0.0000E+00  0.0000E+00  0.0000E+00  0.0000E+00  0.0000E+00  0.0000E+00  0.0000E+00  0.0000E+00  0.0000E+00  0.0000E+00  0.0000E+00  0.0000E+00
REACH   40        0     3  0.7850E+03  0.8911E-05  0.1216E-06  0.0000E+00  0.8911E-05  0.1844E-06  0.5949E-08  0.5892E-03  0.2433E+01  0.0000E+00  0.4866E+01  0.0000E+00  0.7299E+01  0.0000E+00  0.0000E+00  0.0000E+00  0.0000E+00  0.0000E+00  0.7299E+01  0.0000E+00  0.0000E+00  0.0000E+00  0.0000E+00  0.0000E+00  0.0000E+00  0.0000E+00  0.0000E+00  0.0000E+00  0.0000E+00  0.0000E+00  0.0000E+00  0.0000E+00  0.0000E+00  0.0000E+00  0.0000E+00  0.0000E+00  0.0000E+00  0.0000E+00  0.0000E+00  0.0000E+00  0.0000E+00  0.0000E+00  0.0000E+00
REACH   41        0     3  0.2326E+03  0.2684E-05  0.3663E-07  0.0000E+00  0.2684E-05  0.2166E-06  0.6988E-08  0.2298E-02  0.7209E+00  0.0000E+00  0.1442E+01  0.0000E+00  0.2163E+01  0.0000E+00  0.0000E+00  0.0000E+00  0.0000E+00  0.0000E+00  0.2163E+01  0.0000E+00  0.0000E+00  0.0000E+00  0.0000E+00  0.0000E+00  0.0000E+00  0.0000E+00  0.0000E+00  0.0000E+00  0.0000E+00  0.0000E+00  0.0000E+00  0.0000E+00  0.0000E+00  0.0000E+00  0.0000E+00  0.0000E+00  0.0000E+00  0.0000E+00  0.0000E+00  0.0000E+00  0.0000E+00  0.0000E+00  0.0000E+00
REACH    1        0     4  0.1105E+05  0.1064E-05  0.0000E+00  0.0000E+00  0.1064E-05  0.8984E-07  0.0000E+00  0.0000E+00  0.2767E+00  0.0000E+00  0.5534E+00  0.0000E+00  0.8302E+00  0.0000E+00  0.0000E+00  0.0000E+00  0.0000E+00  0.0000E+00  0.8302E+00  0.0000E+00  0.0000E+00  0.0000E+00  0.0000E+00  0.0000E+00  0.0000E+00  0.0000E+00  0.0000E+00  0.0000E+00  0.0000E+00  0.0000E+00  0.0000E+00  0.0000E+00  0.0000E+00  0.0000E+00  0.0000E+00  0.0000E+00  0.0000E+00  0.0000E+00  0.0000E+00  0.0000E+00  0.0000E+00  0.0000E+00  0.0000E+00
REACH    2        0     4  0.2330E+03  0.2692E-05  0.0000E+00  0.0000E+00  0.2692E-05  0.2399E-06  0.0000E+00  0.0000E+00  0.6986E+00  0.0000E+00  0.1397E+01  0.0000E+00  0.2096E+01  0.0000E+00  0.0000E+00  0.0000E+00  0.0000E+00  0.0000E+00  0.2096E+01  0.0000E+00  0.0000E+00  0.0000E+00  0.0000E+00  0.0000E+00  0.0000E+00  0.0000E+00  0.0000E+00  0.0000E+00  0.0000E+00  0.0000E+00  0.0000E+00  0.0000E+00  0.0000E+00  0.0000E+00  0.0000E+00  0.0000E+00  0.0000E+00  0.0000E+00  0.0000E+00  0.0000E+00  0.0000E+00  0.0000E+00  0.0000E+00
REACH    3        0     4  0.1073E+05  0.4402E-05  0.0000E+00  0.0000E+00  0.4402E-05  0.2700E-06  0.0000E+00  0.0000E+00  0.1141E+01  0.0000E+00  0.2282E+01  0.0000E+00  0.3424E+01  0.0000E+00  0.0000E+00  0.0000E+00  0.0000E+00  0.0000E+00  0.3424E+01  0.0000E+00  0.0000E+00  0.0000E+00  0.0000E+00  0.0000E+00  0.0000E+00  0.0000E+00  0.0000E+00  0.0000E+00  0.0000E+00  0.0000E+00  0.0000E+00  0.0000E+00  0.0000E+00  0.0000E+00  0.0000E+00  0.0000E+00  0.0000E+00  0.0000E+00  0.0000E+00  0.0000E+00  0.0000E+00  0.0000E+00  0.0000E+00
REACH    4        0     4  0.9239E+04  0.1760E-06  0.0000E+00  0.0000E+00  0.1760E-06  0.9000E-07  0.0000E+00  0.0000E+00  0.4563E-01  0.0000E+00  0.9126E-01  0.0000E+00  0.1369E+00  0.0000E+00  0.0000E+00  0.0000E+00  0.0000E+00  0.0000E+00  0.1369E+00  0.0000E+00  0.0000E+00  0.0000E+00  0.0000E+00  0.0000E+00  0.0000E+00  0.0000E+00  0.0000E+00  0.0000E+00  0.0000E+00  0.0000E+00  0.0000E+00  0.0000E+00  0.0000E+00  0.0000E+00  0.0000E+00  0.0000E+00  0.0000E+00  0.0000E+00  0.0000E+00  0.0000E+00  0.0000E+00  0.0000E+00  0.0000E+00
REACH    5        0     4  0.2104E+03  0.2434E-05  0.0000E+00  0.0000E+00  0.2434E-05  0.8994E-07  0.0000E+00  0.0000E+00  0.6313E+00  0.0000E+00  0.1263E+01  0.0000E+00  0.1894E+01  0.0000E+00  0.0000E+00  0.0000E+00  0.0000E+00  0.0000E+00  0.1894E+01  0.0000E+00  0.0000E+00  0.0000E+00  0.0000E+00  0.0000E+00  0.0000E+00  0.0000E+00  0.0000E+00  0.0000E+00  0.0000E+00  0.0000E+00  0.0000E+00  0.0000E+00  0.0000E+00  0.0000E+00  0.0000E+00  0.0000E+00  0.0000E+00  0.0000E+00  0.0000E+00  0.0000E+00  0.0000E+00  0.0000E+00  0.0000E+00
REACH    6        0     4  0.1106E+04  0.7584E-06  0.0000E+00  0.0000E+00  0.7584E-06  0.1500E-06  0.0000E+00  0.0000E+00  0.1966E+00  0.0000E+00  0.3932E+00  0.0000E+00  0.5897E+00  0.0000E+00  0.0000E+00  0.0000E+00  0.0000E+00  0.0000E+00  0.5897E+00  0.0000E+00  0.0000E+00  0.0000E+00  0.0000E+00  0.0000E+00  0.0000E+00  0.0000E+00  0.0000E+00  0.0000E+00  0.0000E+00  0.0000E+00  0.0000E+00  0.0000E+00  0.0000E+00  0.0000E+00  0.0000E+00  0.0000E+00  0.0000E+00  0.0000E+00  0.0000E+00  0.0000E+00  0.0000E+00  0.0000E+00  0.0000E+00
REACH    7        0     4  0.4338E+03  0.5005E-05  0.0000E+00  0.0000E+00  0.5005E-05  0.8974E-07  0.0000E+00  0.0000E+00  0.1302E+01  0.0000E+00  0.2603E+01  0.0000E+00  0.3905E+01  0.0000E+00  0.0000E+00  0.0000E+00  0.0000E+00  0.0000E+00  0.3905E+01  0.0000E+00  0.0000E+00  0.0000E+00  0.0000E+00  0.0000E+00  0.0000E+00  0.0000E+00  0.0000E+00  0.0000E+00  0.0000E+00  0.0000E+00  0.0000E+00  0.0000E+00  0.0000E+00  0.0000E+00  0.0000E+00  0.0000E+00  0.0000E+00  0.0000E+00  0.0000E+00  0.0000E+00  0.0000E+00  0.0000E+00  0.0000E+00
REACH    8        0     4  0.6069E+03  0.4762E-06  0.0000E+00  0.0000E+00  0.4762E-06  0.1200E-06  0.0000E+00  0.0000E+00  0.1234E+00  0.0000E+00  0.2469E+00  0.0000E+00  0.3703E+00  0.0000E+00  0.0000E+00  0.0000E+00  0.0000E+00  0.0000E+00  0.3703E+00  0.0000E+00  0.0000E+00  0.0000E+00  0.0000E+00  0.0000E+00  0.0000E+00  0.0000E+00  0.0000E+00  0.0000E+00  0.0000E+00  0.0000E+00  0.0000E+00  0.0000E+00  0.0000E+00  0.0000E+00  0.0000E+00  0.0000E+00  0.0000E+00  0.0000E+00  0.0000E+00  0.0000E+00  0.0000E+00  0.0000E+00  0.0000E+00
REACH    9        0     4  0.1884E+03  0.2175E-05  0.0000E+00  0.0000E+00  0.2175E-05  0.5987E-07  0.0000E+00  0.0000E+00  0.5654E+00  0.0000E+00  0.1131E+01  0.0000E+00  0.1696E+01  0.0000E+00  0.0000E+00  0.0000E+00  0.0000E+00  0.0000E+00  0.1696E+01  0.0000E+00  0.0000E+00  0.0000E+00  0.0000E+00  0.0000E+00  0.0000E+00  0.0000E+00  0.0000E+00  0.0000E+00  0.0000E+00  0.0000E+00  0.0000E+00  0.0000E+00  0.0000E+00  0.0000E+00  0.0000E+00  0.0000E+00  0.0000E+00  0.0000E+00  0.0000E+00  0.0000E+00  0.0000E+00  0.0000E+00  0.0000E+00
REACH   10        0     4  0.9013E+04  0.5109E-05  0.0000E+00  0.0000E+00  0.5109E-05  0.1800E-06  0.0000E+00  0.0000E+00  0.1324E+01  0.0000E+00  0.2649E+01  0.0000E+00  0.3973E+01  0.0000E+00  0.0000E+00  0.0000E+00  0.0000E+00  0.0000E+00  0.3973E+01  0.0000E+00  0.0000E+00  0.0000E+00  0.0000E+00  0.0000E+00  0.0000E+00  0.0000E+00  0.0000E+00  0.0000E+00  0.0000E+00  0.0000E+00  0.0000E+00  0.0000E+00  0.0000E+00  0.0000E+00  0.0000E+00  0.0000E+00  0.0000E+00  0.0000E+00  0.0000E+00  0.0000E+00  0.0000E+00  0.0000E+00  0.0000E+00
REACH   11        0     4  0.2665E+03  0.3082E-05  0.0000E+00  0.0000E+00  0.3082E-05  0.5994E-07  0.0000E+00  0.0000E+00  0.7997E+00  0.0000E+00  0.1599E+01  0.0000E+00  0.2399E+01  0.0000E+00  0.0000E+00  0.0000E+00  0.0000E+00  0.0000E+00  0.2399E+01  0.0000E+00  0.0000E+00  0.0000E+00  0.0000E+00  0.0000E+00  0.0000E+00  0.0000E+00  0.0000E+00  0.0000E+00  0.0000E+00  0.0000E+00  0.0000E+00  0.0000E+00  0.0000E+00  0.0000E+00  0.0000E+00  0.0000E+00  0.0000E+00  0.0000E+00  0.0000E+00  0.0000E+00  0.0000E+00  0.0000E+00  0.0000E+00
REACH   12        0     4  0.3773E+03  0.4361E-05  0.0000E+00  0.0000E+00  0.4361E-05  0.1499E-06  0.0000E+00  0.0000E+00  0.1132E+01  0.0000E+00  0.2264E+01  0.0000E+00  0.3396E+01  0.0000E+00  0.0000E+00  0.0000E+00  0.0000E+00  0.0000E+00  0.3396E+01  0.0000E+00  0.0000E+00  0.0000E+00  0.0000E+00  0.0000E+00  0.0000E+00  0.0000E+00  0.0000E+00  0.0000E+00  0.0000E+00  0.0000E+00  0.0000E+00  0.0000E+00  0.0000E+00  0.0000E+00  0.0000E+00  0.0000E+00  0.0000E+00  0.0000E+00  0.0000E+00  0.0000E+00  0.0000E+00  0.0000E+00  0.0000E+00
REACH   13        0     4  0.8305E+04  0.1163E-05  0.0000E+00  0.0000E+00  0.1163E-05  0.6000E-07  0.0000E+00  0.0000E+00  0.3014E+00  0.0000E+00  0.6029E+00  0.0000E+00  0.9043E+00  0.0000E+00  0.0000E+00  0.0000E+00  0.0000E+00  0.0000E+00  0.9043E+00  0.0000E+00  0.0000E+00  0.0000E+00  0.0000E+00  0.0000E+00  0.0000E+00  0.0000E+00  0.0000E+00  0.0000E+00  0.0000E+00  0.0000E+00  0.0000E+00  0.0000E+00  0.0000E+00  0.0000E+00  0.0000E+00  0.0000E+00  0.0000E+00  0.0000E+00  0.0000E+00  0.0000E+00  0.0000E+00  0.0000E+00  0.0000E+00
REACH   14        0     4  0.4059E+03  0.4698E-05  0.0000E+00  0.0000E+00  0.4698E-05  0.1500E-06  0.0000E+00  0.0000E+00  0.1218E+01  0.0000E+00  0.2436E+01  0.0000E+00  0.3653E+01  0.0000E+00  0.0000E+00  0.0000E+00  0.0000E+00  0.0000E+00  0.3653E+01  0.0000E+00  0.0000E+00  0.0000E+00  0.0000E+00  0.0000E+00  0.0000E+00  0.0000E+00  0.0000E+00  0.0000E+00  0.0000E+00  0.0000E+00  0.0000E+00  0.0000E+00  0.0000E+00  0.0000E+00  0.0000E+00  0.0000E+00  0.0000E+00  0.0000E+00  0.0000E+00  0.0000E+00  0.0000E+00  0.0000E+00  0.0000E+00
REACH   15        0     4  0.7799E+04  0.1081E-06  0.0000E+00  0.0000E+00  0.1081E-06  0.2100E-06  0.0000E+00  0.0000E+00  0.2803E-01  0.0000E+00  0.5607E-01  0.0000E+00  0.8410E-01  0.0000E+00  0.0000E+00  0.0000E+00  0.0000E+00  0.0000E+00  0.8410E-01  0.0000E+00  0.0000E+00  0.0000E+00  0.0000E+00  0.0000E+00  0.0000E+00  0.0000E+00  0.0000E+00  0.0000E+00  0.0000E+00  0.0000E+00  0.0000E+00  0.0000E+00  0.0000E+00  0.0000E+00  0.0000E+00  0.0000E+00  0.0000E+00  0.0000E+00  0.0000E+00  0.0000E+00  0.0000E+00  0.0000E+00  0.0000E+00
REACH   16        0     4  0.1961E+03  0.2270E-05  0.0000E+00  0.0000E+00  0.2270E-05  0.1800E-06  0.0000E+00  0.0000E+00  0.5885E+00  0.0000E+00  0.1177E+01  0.0000E+00  0.1765E+01  0.0000E+00  0.0000E+00  0.0000E+00  0.0000E+00  0.0000E+00  0.1765E+01  0.0000E+00  0.0000E+00  0.0000E+00  0.0000E+00  0.0000E+00  0.0000E+00  0.0000E+00  0.0000E+00  0.0000E+00  0.0000E+00  0.0000E+00  0.0000E+00  0.0000E+00  0.0000E+00  0.0000E+00  0.0000E+00  0.0000E+00  0.0000E+00  0.0000E+00  0.0000E+00  0.0000E+00  0.0000E+00  0.0000E+00  0.0000E+00
REACH   17        0     4  0.7593E+04  0.2465E-05  0.0000E+00  0.0000E+00  0.2465E-05  0.2400E-06  0.0000E+00  0.0000E+00  0.6391E+00  0.0000E+00  0.1278E+01  0.0000E+00  0.1917E+01  0.0000E+00  0.0000E+00  0.0000E+00  0.0000E+00  0.0000E+00  0.1917E+01  0.0000E+00  0.0000E+00  0.0000E+00  0.0000E+00  0.0000E+00  0.0000E+00  0.0000E+00  0.0000E+00  0.0000E+00  0.0000E+00  0.0000E+00  0.0000E+00  0.0000E+00  0.0000E+00  0.0000E+00  0.0000E+00  0.0000E+00  0.0000E+00  0.0000E+00  0.0000E+00  0.0000E+00  0.0000E+00  0.0000E+00  0.0000E+00
REACH   18        0     4  0.7187E+04  0.1881E-05  0.0000E+00  0.0000E+00  0.1881E-05  0.3000E-06  0.0000E+00  0.0000E+00  0.4876E+00  0.0000E+00  0.9751E+00  0.0000E+00  0.1463E+01  0.0000E+00  0.0000E+00  0.0000E+00  0.0000E+00  0.0000E+00  0.1463E+01  0.0000E+00  0.0000E+00  0.0000E+00  0.0000E+00  0.0000E+00  0.0000E+00  0.0000E+00  0.0000E+00  0.0000E+00  0.0000E+00  0.0000E+00  0.0000E+00  0.0000E+00  0.0000E+00  0.0000E+00  0.0000E+00  0.0000E+00  0.0000E+00  0.0000E+00  0.0000E+00  0.0000E+00  0.0000E+00  0.0000E+00  0.0000E+00
REACH   19        0     4  0.6844E+04  0.1309E-05  0.0000E+00  0.0000E+00  0.1309E-05  0.1500E-06  0.0000E+00  0.0000E+00  0.3394E+00  0.0000E+00  0.6788E+00  0.0000E+00  0.1018E+01  0.0000E+00  0.0000E+00  0.0000E+00  0.0000E+00  0.0000E+00  0.1018E+01  0.0000E+00  0.0000E+00  0.0000E+00  0.0000E+00  0.0000E+00  0.0000E+00  0.0000E+00  0.0000E+00  0.0000E+00  0.0000E+00  0.0000E+00  0.0000E+00  0.0000E+00  0.0000E+00  0.0000E+00  0.0000E+00  0.0000E+00  0.0000E+00  0.0000E+00  0.0000E+00  0.0000E+00  0.0000E+00  0.0000E+00  0.0000E+00
REACH   20        0     4  0.1810E+03  0.2094E-05  0.0000E+00  0.0000E+00  0.2094E-05  0.3000E-06  0.0000E+00  0.0000E+00  0.5429E+00  0.0000E+00  0.1086E+01  0.0000E+00  0.1629E+01  0.0000E+00  0.0000E+00  0.0000E+00  0.0000E+00  0.0000E+00  0.1629E+01  0.0000E+00  0.0000E+00  0.0000E+00  0.0000E+00  0.0000E+00  0.0000E+00  0.0000E+00  0.0000E+00  0.0000E+00  0.0000E+00  0.0000E+00  0.0000E+00  0.0000E+00  0.0000E+00  0.0000E+00  0.0000E+00  0.0000E+00  0.0000E+00  0.0000E+00  0.0000E+00  0.0000E+00  0.0000E+00  0.0000E+00  0.0000E+00
REACH   21        0     4  0.1930E+03  0.2234E-05  0.0000E+00  0.0000E+00  0.2234E-05  0.1500E-06  0.0000E+00  0.0000E+00  0.5791E+00  0.0000E+00  0.1158E+01  0.0000E+00  0.1737E+01  0.0000E+00  0.0000E+00  0.0000E+00  0.0000E+00  0.0000E+00  0.1737E+01  0.0000E+00  0.0000E+00  0.0000E+00  0.0000E+00  0.0000E+00  0.0000E+00  0.0000E+00  0.0000E+00  0.0000E+00  0.0000E+00  0.0000E+00  0.0000E+00  0.0000E+00  0.0000E+00  0.0000E+00  0.0000E+00  0.0000E+00  0.0000E+00  0.0000E+00  0.0000E+00  0.0000E+00  0.0000E+00  0.0000E+00  0.0000E+00
REACH   22        0     4  0.2531E+03  0.2929E-05  0.0000E+00  0.0000E+00  0.2929E-05  0.3300E-06  0.0000E+00  0.0000E+00  0.7594E+00  0.0000E+00  0.1519E+01  0.0000E+00  0.2278E+01  0.0000E+00  0.0000E+00  0.0000E+00  0.0000E+00  0.0000E+00  0.2278E+01  0.0000E+00  0.0000E+00  0.0000E+00  0.0000E+00  0.0000E+00  0.0000E+00  0.0000E+00  0.0000E+00  0.0000E+00  0.0000E+00  0.0000E+00  0.0000E+00  0.0000E+00  0.0000E+00  0.0000E+00  0.0000E+00  0.0000E+00  0.0000E+00  0.0000E+00  0.0000E+00  0.0000E+00  0.0000E+00  0.0000E+00  0.0000E+00
[...]
REACH    6        0   1.0  0.1106E+04  0.7584E-06  0.0000E+00  0.0000E+00  0.7584E-06  0.1825E-05  0.0000E+00  0.0000E+00  0.2392E+01  0.0000E+00  0.4783E+01  0.0000E+00  0.7175E+01  0.0000E+00  0.0000E+00  0.0000E+00  0.0000E+00  0.0000E+00  0.7175E+01  0.0000E+00  0.0000E+00  0.0000E+00  0.0000E+00  0.0000E+00  0.0000E+00  0.0000E+00  0.0000E+00  0.0000E+00  0.0000E+00  0.0000E+00  0.0000E+00  0.0000E+00  0.0000E+00  0.0000E+00  0.0000E+00  0.0000E+00  0.0000E+00  0.0000E+00  0.0000E+00  0.0000E+00  0.0000E+00  0.0000E+00  0.0000E+00
REACH    7        0   1.0  0.4338E+03  0.5005E-05  0.0000E+00  0.0000E+00  0.5005E-05  0.1092E-05  0.0000E+00  0.0000E+00  0.1584E+02  0.0000E+00  0.3167E+02  0.0000E+00  0.4751E+02  0.0000E+00  0.0000E+00  0.0000E+00  0.0000E+00  0.0000E+00  0.4751E+02  0.0000E+00  0.0000E+00  0.0000E+00  0.0000E+00  0.0000E+00  0.0000E+00  0.0000E+00  0.0000E+00  0.0000E+00  0.0000E+00  0.0000E+00  0.0000E+00  0.0000E+00  0.0000E+00  0.0000E+00  0.0000E+00  0.0000E+00  0.0000E+00  0.0000E+00  0.0000E+00  0.0000E+00  0.0000E+00  0.0000E+00  0.0000E+00
REACH    8        0   1.0  0.6069E+03  0.4762E-06  0.0000E+00  0.0000E+00  0.4762E-06  0.1460E-05  0.0000E+00  0.0000E+00  0.1502E+01  0.0000E+00  0.3004E+01  0.0000E+00  0.4505E+01  0.0000E+00  0.0000E+00  0.0000E+00  0.0000E+00  0.0000E+00  0.4505E+01  0.0000E+00  0.0000E+00  0.0000E+00  0.0000E+00  0.0000E+00  0.0000E+00  0.0000E+00  0.0000E+00  0.0000E+00  0.0000E+00  0.0000E+00  0.0000E+00  0.0000E+00  0.0000E+00  0.0000E+00  0.0000E+00  0.0000E+00  0.0000E+00  0.0000E+00  0.0000E+00  0.0000E+00  0.0000E+00  0.0000E+00  0.0000E+00
REACH    9        0   1.0  0.1884E+03  0.2175E-05  0.0000E+00  0.0000E+00  0.2175E-05  0.7285E-06  0.0000E+00  0.0000E+00  0.6879E+01  0.0000E+00  0.1376E+02  0.0000E+00  0.2064E+02  0.0000E+00  0.0000E+00  0.0000E+00  0.0000E+00  0.0000E+00  0.2064E+02  0.0000E+00  0.0000E+00  0.0000E+00  0.0000E+00  0.0000E+00  0.0000E+00  0.0000E+00  0.0000E+00  0.0000E+00  0.0000E+00  0.0000E+00  0.0000E+00  0.0000E+00  0.0000E+00  0.0000E+00  0.0000E+00  0.0000E+00  0.0000E+00  0.0000E+00  0.0000E+00  0.0000E+00  0.0000E+00  0.0000E+00  0.0000E+00
REACH   10        0   1.0  0.9013E+04  0.5109E-05  0.0000E+00  0.0000E+00  0.5109E-05  0.2190E-05  0.0000E+00  0.0000E+00  0.1611E+02  0.0000E+00  0.3223E+02  0.0000E+00  0.4834E+02  0.0000E+00  0.0000E+00  0.0000E+00  0.0000E+00  0.0000E+00  0.4834E+02  0.0000E+00  0.0000E+00  0.0000E+00  0.0000E+00  0.0000E+00  0.0000E+00  0.0000E+00  0.0000E+00  0.0000E+00  0.0000E+00  0.0000E+00  0.0000E+00  0.0000E+00  0.0000E+00  0.0000E+00  0.0000E+00  0.0000E+00  0.0000E+00  0.0000E+00  0.0000E+00  0.0000E+00  0.0000E+00  0.0000E+00  0.0000E+00
REACH   11        0   1.0  0.2665E+03  0.3082E-05  0.0000E+00  0.0000E+00  0.3082E-05  0.7293E-06  0.0000E+00  0.0000E+00  0.9729E+01  0.0000E+00  0.1946E+02  0.0000E+00  0.2919E+02  0.0000E+00  0.0000E+00  0.0000E+00  0.0000E+00  0.0000E+00  0.2919E+02  0.0000E+00  0.0000E+00  0.0000E+00  0.0000E+00  0.0000E+00  0.0000E+00  0.0000E+00  0.0000E+00  0.0000E+00  0.0000E+00  0.0000E+00  0.0000E+00  0.0000E+00  0.0000E+00  0.0000E+00  0.0000E+00  0.0000E+00  0.0000E+00  0.0000E+00  0.0000E+00  0.0000E+00  0.0000E+00  0.0000E+00  0.0000E+00
REACH   12        0   1.0  0.3773E+03  0.4361E-05  0.0000E+00  0.0000E+00  0.4361E-05  0.1823E-05  0.0000E+00  0.0000E+00  0.1377E+02  0.0000E+00  0.2755E+02  0.0000E+00  0.4132E+02  0.0000E+00  0.0000E+00  0.0000E+00  0.0000E+00  0.0000E+00  0.4132E+02  0.0000E+00  0.0000E+00  0.0000E+00  0.0000E+00  0.0000E+00  0.0000E+00  0.0000E+00  0.0000E+00  0.0000E+00  0.0000E+00  0.0000E+00  0.0000E+00  0.0000E+00  0.0000E+00  0.0000E+00  0.0000E+00  0.0000E+00  0.0000E+00  0.0000E+00  0.0000E+00  0.0000E+00  0.0000E+00  0.0000E+00  0.0000E+00
REACH   13        0   1.0  0.8305E+04  0.1163E-05  0.0000E+00  0.0000E+00  0.1163E-05  0.7300E-06  0.0000E+00  0.0000E+00  0.3667E+01  0.0000E+00  0.7335E+01  0.0000E+00  0.1100E+02  0.0000E+00  0.0000E+00  0.0000E+00  0.0000E+00  0.0000E+00  0.1100E+02  0.0000E+00  0.0000E+00  0.0000E+00  0.0000E+00  0.0000E+00  0.0000E+00  0.0000E+00  0.0000E+00  0.0000E+00  0.0000E+00  0.0000E+00  0.0000E+00  0.0000E+00  0.0000E+00  0.0000E+00  0.0000E+00  0.0000E+00  0.0000E+00  0.0000E+00  0.0000E+00  0.0000E+00  0.0000E+00  0.0000E+00  0.0000E+00
REACH   14        0   1.0  0.4059E+03  0.4698E-05  0.0000E+00  0.0000E+00  0.4698E-05  0.1825E-05  0.0000E+00  0.0000E+00  0.1482E+02  0.0000E+00  0.2963E+02  0.0000E+00  0.4445E+02  0.0000E+00  0.0000E+00  0.0000E+00  0.0000E+00  0.0000E+00  0.4445E+02  0.0000E+00  0.0000E+00  0.0000E+00  0.0000E+00  0.0000E+00  0.0000E+00  0.0000E+00  0.0000E+00  0.0000E+00  0.0000E+00  0.0000E+00  0.0000E+00  0.0000E+00  0.0000E+00  0.0000E+00  0.0000E+00  0.0000E+00  0.0000E+00  0.0000E+00  0.0000E+00  0.0000E+00  0.0000E+00  0.0000E+00  0.0000E+00
REACH   15        0   1.0  0.7799E+04  0.1981E-05  0.0000E+00  0.0000E+00  0.1981E-05  0.2969E-05  0.0000E+00  0.0000E+00  0.3411E+00  0.0000E+00  0.6821E+00  0.0000E+00  0.1023E+01  0.0000E+00  0.0000E+00  0.0000E+00  0.0000E+00  0.0000E+00  0.1023E+01  0.0000E+00  0.0000E+00  0.0000E+00  0.0000E+00  0.0000E+00  0.0000E+00  0.0000E+00  0.0000E+00  0.0000E+00  0.0000E+00  0.0000E+00  0.0000E+00  0.0000E+00  0.0000E+00  0.0000E+00  0.0000E+00  0.0000E+00  0.0000E+00  0.0000E+00  0.0000E+00  0.0000E+00  0.0000E+00  0.0000E+00  0.0000E+00
REACH   16        0   1.0  0.1961E+03  0.2270E-05  0.2719E-06  0.0000E+00  0.2270E-05  0.2190E-05  0.4140E-06  0.1019E-01  0.7160E+01  0.0000E+00  0.1432E+02  0.0000E+00  0.2148E+02  0.0000E+00  0.0000E+00  0.0000E+00  0.0000E+00  0.0000E+00  0.2148E+02  0.0000E+00  0.0000E+00  0.0000E+00  0.0000E+00  0.0000E+00  0.0000E+00  0.0000E+00  0.0000E+00  0.0000E+00  0.0000E+00  0.0000E+00  0.0000E+00  0.0000E+00  0.0000E+00  0.0000E+00  0.0000E+00  0.0000E+00  0.0000E+00  0.0000E+00  0.0000E+00  0.0000E+00  0.0000E+00  0.0000E+00  0.0000E+00
REACH   17        0   1.0  0.7593E+04  0.4441E-05  0.1601E-05  0.0000E+00  0.4441E-05  0.2420E-05  0.0000E+00  0.0000E+00  0.7775E+01  0.0000E+00  0.1555E+02  0.0000E+00  0.2333E+02  0.0000E+00  0.0000E+00  0.0000E+00  0.0000E+00  0.0000E+00  0.2333E+02  0.0000E+00  0.0000E+00  0.0000E+00  0.0000E+00  0.0000E+00  0.0000E+00  0.0000E+00  0.0000E+00  0.0000E+00  0.0000E+00  0.0000E+00  0.0000E+00  0.0000E+00  0.0000E+00  0.0000E+00  0.0000E+00  0.0000E+00  0.0000E+00  0.0000E+00  0.0000E+00  0.0000E+00  0.0000E+00  0.0000E+00  0.0000E+00
REACH   18        0   1.0  0.7187E+04  0.4155E-05  0.1708E-05  0.0000E+00  0.4155E-05  0.3120E-05  0.0000E+00  0.0000E+00  0.5932E+01  0.0000E+00  0.1186E+02  0.0000E+00  0.1780E+02  0.0000E+00  0.0000E+00  0.0000E+00  0.0000E+00  0.0000E+00  0.1780E+02  0.0000E+00  0.0000E+00  0.0000E+00  0.0000E+00  0.0000E+00  0.0000E+00  0.0000E+00  0.0000E+00  0.0000E+00  0.0000E+00  0.0000E+00  0.0000E+00  0.0000E+00  0.0000E+00  0.0000E+00  0.0000E+00  0.0000E+00  0.0000E+00  0.0000E+00  0.0000E+00  0.0000E+00  0.0000E+00  0.0000E+00  0.0000E+00
REACH   19        0   1.0  0.6844E+04  0.4036E-05  0.1989E-05  0.0000E+00  0.4036E-05  0.1503E-05  0.0000E+00  0.0000E+00  0.4129E+01  0.0000E+00  0.8259E+01  0.0000E+00  0.1239E+02  0.0000E+00  0.0000E+00  0.0000E+00  0.0000E+00  0.0000E+00  0.1239E+02  0.0000E+00  0.0000E+00  0.0000E+00  0.0000E+00  0.0000E+00  0.0000E+00  0.0000E+00  0.0000E+00  0.0000E+00  0.0000E+00  0.0000E+00  0.0000E+00  0.0000E+00  0.0000E+00  0.0000E+00  0.0000E+00  0.0000E+00  0.0000E+00  0.0000E+00  0.0000E+00  0.0000E+00  0.0000E+00  0.0000E+00  0.0000E+00
REACH   20        0   1.0  0.1810E+03  0.2094E-05  0.2854E-06  0.0000E+00  0.2094E-05  0.3650E-05  0.7900E-06  0.2219E-01  0.6605E+01  0.0000E+00  0.1321E+02  0.0000E+00  0.1982E+02  0.0000E+00  0.0000E+00  0.0000E+00  0.0000E+00  0.0000E+00  0.1982E+02  0.0000E+00  0.0000E+00  0.0000E+00  0.0000E+00  0.0000E+00  0.0000E+00  0.0000E+00  0.0000E+00  0.0000E+00  0.0000E+00  0.0000E+00  0.0000E+00  0.0000E+00  0.0000E+00  0.0000E+00  0.0000E+00  0.0000E+00  0.0000E+00  0.0000E+00  0.0000E+00  0.0000E+00  0.0000E+00  0.0000E+00  0.0000E+00
REACH   21        0   1.0  0.1930E+03  0.2234E-05  0.2676E-06  0.0000E+00  0.2234E-05  0.1825E-05  0.3450E-06  0.8631E-02  0.7046E+01  0.0000E+00  0.1409E+02  0.0000E+00  0.2114E+02  0.0000E+00  0.0000E+00  0.0000E+00  0.0000E+00  0.0000E+00  0.2114E+02  0.0000E+00  0.0000E+00  0.0000E+00  0.0000E+00  0.0000E+00  0.0000E+00  0.0000E+00  0.0000E+00  0.0000E+00  0.0000E+00  0.0000E+00  0.0000E+00  0.0000E+00  0.0000E+00  0.0000E+00  0.0000E+00  0.0000E+00  0.0000E+00  0.0000E+00  0.0000E+00  0.0000E+00  0.0000E+00  0.0000E+00  0.0000E+00
REACH   22        0   1.0  0.2531E+03  0.2929E-05  0.3611E-06  0.0000E+00  0.2929E-05  0.4015E-05  0.8140E-06  0.1937E-01  0.9239E+01  0.0000E+00  0.1848E+02  0.0000E+00  0.2772E+02  0.0000E+00  0.0000E+00  0.0000E+00  0.0000E+00  0.0000E+00  0.2772E+02  0.0000E+00  0.0000E+00  0.0000E+00  0.0000E+00  0.0000E+00  0.0000E+00  0.0000E+00  0.0000E+00  0.0000E+00  0.0000E+00  0.0000E+00  0.0000E+00  0.0000E+00  0.0000E+00  0.0000E+00  0.0000E+00  0.0000E+00  0.0000E+00  0.0000E+00  0.0000E+00  0.0000E+00  0.0000E+00  0.0000E+00  0.0000E+00
REACH   23        0   1.0  0.6477E+04  0.7541E-05  0.2365E-05  0.0000E+00  0.7541E-05  0.1937E-05  0.0000E+00  0.0000E+00  0.1519E+02  0.0000E+00  0.3037E+02  0.0000E+00  0.4556E+02  0.0000E+00  0.0000E+00  0.0000E+00  0.0000E+00  0.0000E+00  0.4556E+02  0.0000E+00  0.0000E+00  0.0000E+00  0.0000E+00  0.0000E+00  0.0000E+00  0.0000E+00  0.0000E+00  0.0000E+00  0.0000E+00  0.0000E+00  0.0000E+00  0.0000E+00  0.0000E+00  0.0000E+00  0.0000E+00  0.0000E+00  0.0000E+00  0.0000E+00  0.0000E+00  0.0000E+00  0.0000E+00  0.0000E+00  0.0000E+00
REACH   24        0   1.0  0.1506E+03  0.1743E-05  0.2315E-06  0.0000E+00  0.1743E-05  0.4015E-05  0.8690E-06  0.2984E-01  0.5497E+01  0.0000E+00  0.1099E+02  0.0000E+00  0.1649E+02  0.0000E+00  0.0000E+00  0.0000E+00  0.0000E+00  0.0000E+00  0.1649E+02  0.0000E+00  0.0000E+00  0.0000E+00  0.0000E+00  0.0000E+00  0.0000E+00  0.0000E+00  0.0000E+00  0.0000E+00  0.0000E+00  0.0000E+00  0.0000E+00  0.0000E+00  0.0000E+00  0.0000E+00  0.0000E+00  0.0000E+00  0.0000E+00  0.0000E+00  0.0000E+00  0.0000E+00  0.0000E+00  0.0000E+00  0.0000E+00
REACH   25        0   1.0  0.5911E+04  0.6380E-05  0.2494E-05  0.0000E+00  0.6380E-05  0.1794E-05  0.0000E+00  0.0000E+00  0.1005E+02  0.0000E+00  0.2009E+02  0.0000E+00  0.3014E+02  0.0000E+00  0.0000E+00  0.0000E+00  0.0000E+00  0.0000E+00  0.3014E+02  0.0000E+00  0.0000E+00  0.0000E+00  0.0000E+00  0.0000E+00  0.0000E+00  0.0000E+00  0.0000E+00  0.0000E+00  0.0000E+00  0.0000E+00  0.0000E+00  0.0000E+00  0.0000E+00  0.0000E+00  0.0000E+00  0.0000E+00  0.0000E+00  0.0000E+00  0.0000E+00  0.0000E+00  0.0000E+00  0.0000E+00  0.0000E+00
REACH   26        0   1.0  0.4609E+04  0.8090E-05  0.2218E-05  0.0000E+00  0.8090E-05  0.2724E-05  0.0000E+00  0.0000E+00  0.1817E+02  0.0000E+00  0.3633E+02  0.0000E+00  0.5450E+02  0.0000E+00  0.0000E+00  0.0000E+00  0.0000E+00  0.0000E+00  0.5450E+02  0.0000E+00  0.0000E+00  0.0000E+00  0.0000E+00  0.0000E+00  0.0000E+00  0.0000E+00  0.0000E+00  0.0000E+00  0.0000E+00  0.0000E+00  0.0000E+00  0.0000E+00  0.0000E+00  0.0000E+00  0.0000E+00  0.0000E+00  0.0000E+00  0.0000E+00  0.0000E+00  0.0000E+00  0.0000E+00  0.0000E+00  0.0000E+00
REACH   27        0   1.0  0.3778E+03  0.4364E-05  0.5308E-06  0.0000E+00  0.4364E-05  0.1458E-05  0.2837E-06  0.3684E-02  0.1379E+02  0.0000E+00  0.2758E+02  0.0000E+00  0.4137E+02  0.0000E+00  0.0000E+00  0.0000E+00  0.0000E+00  0.0000E+00  0.4137E+02  0.0000E+00  0.0000E+00  0.0000E+00  0.0000E+00  0.0000E+00  0.0000E+00  0.0000E+00  0.0000E+00  0.0000E+00  0.0000E+00  0.0000E+00  0.0000E+00  0.0000E+00  0.0000E+00  0.0000E+00  0.0000E+00  0.0000E+00  0.0000E+00  0.0000E+00  0.0000E+00  0.0000E+00  0.0000E+00  0.0000E+00  0.0000E+00
REACH   28        0   1.0  0.1027E+04  0.3186E-05  0.9766E-06  0.0000E+00  0.3186E-05  0.3628E-05  0.0000E+00  0.0000E+00  0.6310E+01  0.0000E+00  0.1262E+02  0.0000E+00  0.1893E+02  0.0000E+00  0.0000E+00  0.0000E+00  0.0000E+00  0.0000E+00  0.1893E+02  0.0000E+00  0.0000E+00  0.0000E+00  0.0000E+00  0.0000E+00  0.0000E+00  0.0000E+00  0.0000E+00  0.0000E+00  0.0000E+00  0.0000E+00  0.0000E+00  0.0000E+00  0.0000E+00  0.0000E+00  0.0000E+00  0.0000E+00  0.0000E+00  0.0000E+00  0.0000E+00  0.0000E+00  0.0000E+00  0.0000E+00  0.0000E+00
REACH   29        0   1.0  0.3915E+04  0.5494E-05  0.2050E-05  0.0000E+00  0.5494E-05  0.1506E-05  0.0000E+00  0.0000E+00  0.9174E+01  0.0000E+00  0.1835E+02  0.0000E+00  0.2752E+02  0.0000E+00  0.0000E+00  0.0000E+00  0.0000E+00  0.0000E+00  0.2752E+02  0.0000E+00  0.0000E+00  0.0000E+00  0.0000E+00  0.0000E+00  0.0000E+00  0.0000E+00  0.0000E+00  0.0000E+00  0.0000E+00  0.0000E+00  0.0000E+00  0.0000E+00  0.0000E+00  0.0000E+00  0.0000E+00  0.0000E+00  0.0000E+00  0.0000E+00  0.0000E+00  0.0000E+00  0.0000E+00  0.0000E+00  0.0000E+00
REACH   30        0   1.0  0.1959E+03  0.2267E-05  0.2801E-06  0.0000E+00  0.2267E-05  0.2190E-05  0.4440E-06  0.1337E-01  0.7151E+01  0.0000E+00  0.1430E+02  0.0000E+00  0.2145E+02  0.0000E+00  0.0000E+00  0.0000E+00  0.0000E+00  0.0000E+00  0.2145E+02  0.0000E+00  0.0000E+00  0.0000E+00  0.0000E+00  0.0000E+00  0.0000E+00  0.0000E+00  0.0000E+00  0.0000E+00  0.0000E+00  0.0000E+00  0.0000E+00  0.0000E+00  0.0000E+00  0.0000E+00  0.0000E+00  0.0000E+00  0.0000E+00  0.0000E+00  0.0000E+00  0.0000E+00  0.0000E+00  0.0000E+00  0.0000E+00
REACH   31        0   1.0  0.4764E+03  0.5512E-05  0.6540E-06  0.0000E+00  0.5512E-05  0.1825E-05  0.3499E-06  0.3769E-02  0.1739E+02  0.0000E+00  0.3478E+02  0.0000E+00  0.5217E+02  0.0000E+00  0.0000E+00  0.0000E+00  0.0000E+00  0.0000E+00  0.5217E+02  0.0000E+00  0.0000E+00  0.0000E+00  0.0000E+00  0.0000E+00  0.0000E+00  0.0000E+00  0.0000E+00  0.0000E+00  0.0000E+00  0.0000E+00  0.0000E+00  0.0000E+00  0.0000E+00  0.0000E+00  0.0000E+00  0.0000E+00  0.0000E+00  0.0000E+00  0.0000E+00  0.0000E+00  0.0000E+00  0.0000E+00  0.0000E+00
REACH   32        0   1.0  0.3369E+04  0.8779E-05  0.2187E-05  0.0000E+00  0.8779E-05  0.2117E-05  0.0000E+00  0.0000E+00  0.2113E+02  0.0000E+00  0.4225E+02  0.0000E+00  0.6338E+02  0.0000E+00  0.0000E+00  0.0000E+00  0.0000E+00  0.0000E+00  0.6338E+02  0.0000E+00  0.0000E+00  0.0000E+00  0.0000E+00  0.0000E+00  0.0000E+00  0.0000E+00  0.0000E+00  0.0000E+00  0.0000E+00  0.0000E+00  0.0000E+00  0.0000E+00  0.0000E+00  0.0000E+00  0.0000E+00  0.0000E+00  0.0000E+00  0.0000E+00  0.0000E+00  0.0000E+00  0.0000E+00  0.0000E+00  0.0000E+00
REACH   33        0   1.0  0.2952E+03  0.3417E-05  0.3994E-06  0.0000E+00  0.3417E-05  0.2920E-05  0.5440E-06  0.1056E-01  0.1078E+02  0.0000E+00  0.2155E+02  0.0000E+00  0.3233E+02  0.0000E+00  0.0000E+00  0.0000E+00  0.0000E+00  0.0000E+00  0.3233E+02  0.0000E+00  0.0000E+00  0.0000E+00  0.0000E+00  0.0000E+00  0.0000E+00  0.0000E+00  0.0000E+00  0.0000E+00  0.0000E+00  0.0000E+00  0.0000E+00  0.0000E+00  0.0000E+00  0.0000E+00  0.0000E+00  0.0000E+00  0.0000E+00  0.0000E+00  0.0000E+00  0.0000E+00  0.0000E+00  0.0000E+00  0.0000E+00
REACH   34        0   1.0  0.2200E+03  0.2547E-05  0.3074E-06  0.0000E+00  0.2547E-05  0.3285E-05  0.6390E-06  0.1450E-01  0.8032E+01  0.0000E+00  0.1606E+02  0.0000E+00  0.2410E+02  0.0000E+00  0.0000E+00  0.0000E+00  0.0000E+00  0.0000E+00  0.2410E+02  0.0000E+00  0.0000E+00  0.0000E+00  0.0000E+00  0.0000E+00  0.0000E+00  0.0000E+00  0.0000E+00  0.0000E+00  0.0000E+00  0.0000E+00  0.0000E+00  0.0000E+00  0.0000E+00  0.0000E+00  0.0000E+00  0.0000E+00  0.0000E+00  0.0000E+00  0.0000E+00  0.0000E+00  0.0000E+00  0.0000E+00  0.0000E+00
REACH   35        0   1.0  0.2570E+04  0.9139E-05  0.1827E-05  0.0000E+00  0.9139E-05  0.2095E-05  0.0000E+00  0.0000E+00  0.2432E+02  0.0000E+00  0.4864E+02  0.0000E+00  0.7295E+02  0.0000E+00  0.0000E+00  0.0000E+00  0.0000E+00  0.0000E+00  0.7295E+02  0.0000E+00  0.0000E+00  0.0000E+00  0.0000E+00  0.0000E+00  0.0000E+00  0.0000E+00  0.0000E+00  0.0000E+00  0.0000E+00  0.0000E+00  0.0000E+00  0.0000E+00  0.0000E+00  0.0000E+00  0.0000E+00  0.0000E+00  0.0000E+00  0.0000E+00  0.0000E+00  0.0000E+00  0.0000E+00  0.0000E+00  0.0000E+00
REACH   36        0   1.0  0.1912E+03  0.2173E-05  0.2546E-06  0.0000E+00  0.2173E-05  0.1087E-05  0.2024E-06  0.5314E-02  0.6980E+01  0.0000E+00  0.1396E+02  0.0000E+00  0.2094E+02  0.0000E+00  0.0000E+00  0.0000E+00  0.0000E+00  0.0000E+00  0.2094E+02  0.0000E+00  0.0000E+00  0.0000E+00  0.0000E+00  0.0000E+00  0.0000E+00  0.0000E+00  0.0000E+00  0.0000E+00  0.0000E+00  0.0000E+00  0.0000E+00  0.0000E+00  0.0000E+00  0.0000E+00  0.0000E+00  0.0000E+00  0.0000E+00  0.0000E+00  0.0000E+00  0.0000E+00  0.0000E+00  0.0000E+00  0.0000E+00
REACH   37        0   1.0  0.1712E+04  0.2588E-05  0.1258E-05  0.0000E+00  0.2588E-05  0.6419E-06  0.0000E+00  0.0000E+00  0.2645E-01  0.0000E+00  0.5289E-01  0.0000E+00  0.3307E+00  0.0000E+00  0.0000E+00  0.0000E+00  0.0000E+00  0.0000E+00  0.7934E-01  0.0000E+00  0.0000E+00  0.0000E+00  0.0000E+00  0.0000E+00  0.0000E+00  0.0000E+00  0.0000E+00  0.0000E+00  0.0000E+00  0.0000E+00  0.0000E+00  0.0000E+00  0.0000E+00  0.0000E+00  0.0000E+00  0.0000E+00  0.0000E+00  0.0000E+00  0.0000E+00  0.0000E+00  0.0000E+00  0.0000E+00  0.0000E+00
REACH   38        0   1.0  0.1930E+03  0.2178E-05  0.2599E-06  0.0000E+00  0.2178E-05  0.1810E-05  0.3521E-06  0.9263E-02  0.7039E+01  0.0000E+00  0.1408E+02  0.0000E+00  0.2112E+02  0.0000E+00  0.0000E+00  0.0000E+00  0.0000E+00  0.0000E+00  0.2112E+02  0.0000E+00  0.0000E+00  0.0000E+00  0.0000E+00  0.0000E+00  0.0000E+00  0.0000E+00  0.0000E+00  0.0000E+00  0.0000E+00  0.0000E+00  0.0000E+00  0.0000E+00  0.0000E+00  0.0000E+00  0.0000E+00  0.0000E+00  0.0000E+00  0.0000E+00  0.0000E+00  0.0000E+00  0.0000E+00  0.0000E+00  0.0000E+00
REACH   39        0   1.0  0.1479E+04  0.7065E-05  0.1505E-05  0.0000E+00  0.7065E-05  0.1816E-05  0.0000E+00  0.0000E+00  0.1828E+02  0.0000E+00  0.3655E+02  0.0000E+00  0.5483E+02  0.0000E+00  0.0000E+00  0.0000E+00  0.0000E+00  0.0000E+00  0.5483E+02  0.0000E+00  0.0000E+00  0.0000E+00  0.0000E+00  0.0000E+00  0.0000E+00  0.0000E+00  0.0000E+00  0.0000E+00  0.0000E+00  0.0000E+00  0.0000E+00  0.0000E+00  0.0000E+00  0.0000E+00  0.0000E+00  0.0000E+00  0.0000E+00  0.0000E+00  0.0000E+00  0.0000E+00  0.0000E+00  0.0000E+00  0.0000E+00
REACH   40        0   1.0  0.7850E+03  0.8911E-05  0.1030E-05  0.0000E+00  0.8911E-05  0.2171E-05  0.3926E-06  0.2443E-02  0.2865E+02  0.0000E+00  0.5730E+02  0.0000E+00  0.8595E+02  0.0000E+00  0.0000E+00  0.0000E+00  0.0000E+00  0.0000E+00  0.8595E+02  0.0000E+00  0.0000E+00  0.0000E+00  0.0000E+00  0.0000E+00  0.0000E+00  0.0000E+00  0.0000E+00  0.0000E+00  0.0000E+00  0.0000E+00  0.0000E+00  0.0000E+00  0.0000E+00  0.0000E+00  0.0000E+00  0.0000E+00  0.0000E+00  0.0000E+00  0.0000E+00  0.0000E+00  0.0000E+00  0.0000E+00  0.0000E+00
REACH   41        0   1.0  0.2326E+03  0.2684E-05  0.3138E-06  0.0000E+00  0.2684E-05  0.2551E-05  0.4752E-06  0.9722E-02  0.8488E+01  0.0000E+00  0.1698E+02  0.0000E+00  0.2546E+02  0.0000E+00  0.0000E+00  0.0000E+00  0.0000E+00  0.0000E+00  0.2546E+02  0.0000E+00  0.0000E+00  0.0000E+00  0.0000E+00  0.0000E+00  0.0000E+00  0.0000E+00  0.0000E+00  0.0000E+00  0.0000E+00  0.0000E+00  0.0000E+00  0.0000E+00  0.0000E+00  0.0000E+00  0.0000E+00  0.0000E+00  0.0000E+00  0.0000E+00  0.0000E+00  0.0000E+00  0.0000E+00  0.0000E+00  0.0000E+00
