1
    SWAT  May '02 VERSION2003                                                                            0/ 0/   0      0: 0: 0

    General Input/Output section (file.cio): ArcSWAT 2.3.4                          
    2013/5/29 0:00:00ARCGIS-SWAT interface AV                                       
                                                                                    


LULC HRU      GIS  SUB  MGT  MON   AREAkm2  PRECIPmm SNOFALLmm SNOMELTmm     IRRmm     PETmm      ETmm SW_INITmm  SW_ENDmm    PERCmm GW_RCHGmm DA_RCHGmm   REVAPmm  SA_IRRmm  DA_IRRmm   SA_STmm   DA_STmmSURQ_GENmmSURQ_CNTmm   TLOSSmm    LATQmm    GW_Qmm    WYLDmm   DAILYCN TMP_AVdgC TMP_MXdgC TMP_MNdgCSOL_TMPdgCSOLARMJ/m2  SYLDt/ha  USLEt/haN_APPkg/haP_APPkg/haNAUTOkg/haPAUTOkg/ha NGRZkg/ha PGRZkg/haNCFRTkg/haPCFRTkg/haNRAINkg/ha NFIXkg/ha F-MNkg/ha A-MNkg/ha A-SNkg/ha F-MPkg/haAO-LPkg/ha L-APkg/ha A-SPkg/ha DNITkg/ha  NUPkg/ha  PUPkg/ha ORGNkg/ha ORGPkg/ha SEDPkg/haNSURQkg/haNLATQkg/ha NO3Lkg/haNO3GWkg/ha SOLPkg/ha P_GWkg/ha    W_STRS  TMP_STRS    N_STRS    P_STRS  BIOMt/ha       LAI   YLDt/ha   BACTPct  BACTLPct WTAB CLIm WTAB SOLm
SWRN    1        0    1    0    1.58563E+02     0.454     0.000     0.000     0.000   128.276     3.016     0.188     0.000     0.454     0.240     0.096    13.078     0.000     0.000    87.066   300.096     0.000     0.000     0.000     0.000     0.000     0.000    62.735     6.061    11.902     0.221    -0.712     8.351     0.000     0.000     0.000     0.000     0.000     0.000     0.000     0.000     0.000     0.000     0.005     0.000     0.000     0.005     0.000     0.000     0.001     0.000     0.000     0.000     0.000     0.000     0.000     0.000     0.000     0.000     0.000     0.173     0.000     0.000     0.000     0.000     0.000     0.000     0.000     0.000     0.000     0.000 .00000E+00 .00000E+00 0.000E+00 0.000E+00
SWRN    2        0    1    0    1.11436E+02     0.454     0.000     0.000     0.000   128.276    11.051    11.521     9.209     0.454     0.240     0.096    13.078     0.000     0.000    87.066   300.096     0.000     0.000     0.000     0.000     0.000     0.000    94.354     6.061    11.902     0.221    -2.234     8.351     0.000     0.000     0.000     0.000     0.000     0.000     0.000     0.000     0.000     0.000     0.005     0.000     0.000     0.016     0.000     0.000     0.003     0.001     0.000     0.000     0.000     0.000     0.000     0.000     0.000     0.000     0.000     0.063     0.000     0.000     0.000     0.000     0.000     0.000     0.000     0.000     0.000     0.000 .00000E+00 .00000E+00 0.000E+00 0.000E+00
SWRN    3        0    1    0    1.22241E+02     0.454     0.000     0.000     0.000   128.276    11.051    11.521     9.209     0.454     0.240     0.096    13.078     0.000     0.000    87.066   300.096     0.000     0.000     0.000     0.000     0.000     0.000    94.354     6.061    11.902     0.221    -2.234     8.351     0.000     0.000     0.000     0.000     0.000     0.000     0.000     0.000     0.000     0.000     0.005     0.000     0.000     0.016     0.000     0.000     0.003     0.001     0.000     0.000     0.000     0.000     0.000     0.000     0.000     0.000     0.000     0.063     0.000     0.000     0.000     0.000     0.000     0.000     0.000     0.000     0.000     0.000 .00000E+00 .00000E+00 0.000E+00 0.000E+00
PAST    4        0    2    0    1.89059E+02     0.587     0.000     0.000     0.000   169.471    12.125     7.374     3.684     0.587     0.310     0.124    17.278     0.000     0.000    82.908   300.124     0.000     0.000     0.000     0.000     0.000     0.000    89.404    13.274    19.115     7.434     0.925     8.351     0.000     0.000     0.000     0.000     0.000     0.000     0.000     0.000     0.000     0.000     0.006     0.000     0.000     0.306    -0.002     0.000     0.052     0.007     0.000     0.000     0.222     0.034     0.000     0.000     0.000     0.000     0.000     0.130     0.000     0.000     0.000    15.318    15.359     0.000     0.000     0.004     0.013     0.000 .00000E+00 .00000E+00 0.000E+00 0.000E+00
PAST    5        0    2    0    1.88812E+02     0.587     0.000     0.000     0.000   169.471    12.125     7.374     3.684     0.587     0.310     0.124    17.278     0.000     0.000    82.908   300.124     0.000     0.000     0.000     0.000     0.000     0.000    89.404    13.274    19.115     7.434     0.925     8.351     0.000     0.000     0.000     0.000     0.000     0.000     0.000     0.000     0.000     0.000     0.006     0.000     0.000     0.306    -0.002     0.000     0.052     0.007     0.000     0.000     0.222     0.034     0.000     0.000     0.000     0.000     0.000     0.130     0.000     0.000     0.000    15.318    15.359     0.000     0.000     0.004     0.013     0.000 .00000E+00 .00000E+00 0.000E+00 0.000E+00
SWRN    6        0    2    0    1.72755E+01     0.587     0.000     0.000     0.000   169.471    12.125     7.373     3.684     0.587     0.310     0.124    17.278     0.000     0.000    82.908   300.124     0.000     0.000     0.000     0.000     0.000     0.000    81.513    13.274    19.115     7.434     0.925     8.351     0.000     0.000     0.000     0.000     0.000     0.000     0.000     0.000     0.000     0.000     0.006     0.000     0.000     0.306    -0.002     0.000     0.052     0.024     0.001     0.000     0.039     0.003     0.000     0.000     0.000     0.000     0.000     0.130     0.000     0.000     0.000    15.339    15.359     0.000     0.000     0.002     0.023     0.000 .00000E+00 .00000E+00 0.000E+00 0.000E+00
SWRN    7        0    2    0    1.33545E+01     0.587     0.000     0.000     0.000   169.471    12.125     7.373     3.684     0.587     0.310     0.124    17.278     0.000     0.000    82.908   300.124     0.000     0.000     0.000     0.000     0.000     0.000    81.513    13.274    19.115     7.434     0.925     8.351     0.000     0.000     0.000     0.000     0.000     0.000     0.000     0.000     0.000     0.000     0.006     0.000     0.000     0.306    -0.002     0.000     0.052     0.024     0.001     0.000     0.039     0.003     0.000     0.000     0.000     0.000     0.000     0.130     0.000     0.000     0.000    15.339    15.359     0.000     0.000     0.002     0.023     0.000 .00000E+00 .00000E+00 0.000E+00 0.000E+00
SWRN    8        0    2    0    1.32812E+01     0.587     0.000     0.000     0.000   169.471    12.125     7.373     3.684     0.587     0.310     0.124    17.278     0.000     0.000    82.908   300.124     0.000     0.000     0.000     0.000     0.000     0.000    81.513    13.274    19.115     7.434     0.925     8.351     0.000     0.000     0.000     0.000     0.000     0.000     0.000     0.000     0.000     0.000     0.006     0.000     0.000     0.306    -0.002     0.000     0.052     0.024     0.001     0.000     0.039     0.003     0.000     0.000     0.000     0.000     0.000     0.130     0.000     0.000     0.000    15.339    15.359     0.000     0.000     0.002     0.023     0.000 .00000E+00 .00000E+00 0.000E+00 0.000E+00
SWRN    9        0    2    0    1.12812E+02     0.587     0.000     0.000     0.000   169.471     3.016     0.160     0.000     0.587     0.310     0.124    17.278     0.000     0.000    82.908   300.124     0.000     0.000     0.000     0.000     0.000     0.000    59.445    13.274    19.115     7.434     5.095     8.351     0.000     0.000     0.000     0.000     0.000     0.000     0.000     0.000     0.000     0.000     0.006     0.000     0.000     0.018     0.000     0.000     0.003     0.001     0.000     0.000     0.003     0.000     0.000     0.000     0.000     0.000     0.000     0.223     0.000     0.000     0.000    15.996    15.359     0.000     0.000     0.000     0.003     0.000 .00000E+00 .00000E+00 0.000E+00 0.000E+00
SWRN   10        0    2    0    1.18405E+02     0.587     0.000     0.000     0.000   169.471    11.197    10.891     9.062     0.587     0.310     0.124    17.278     0.000     0.000    82.908   300.124     0.000     0.000     0.000     0.000     0.000     0.000    91.627    13.274    19.115     7.434     1.986     8.351     0.000     0.000     0.000     0.000     0.000     0.000     0.000     0.000     0.000     0.000     0.006     0.000     0.000     0.036     0.000     0.000     0.006     0.000     0.000     0.000     0.077     0.006     0.000     0.000     0.000     0.000     0.000     0.082     0.000     0.000     0.000    12.857    15.359     0.000     0.027     0.005     0.040     0.000 .00000E+00 .00000E+00 0.000E+00 0.000E+00
SWRN   11        0    2    0    1.98838E+01     0.587     0.000     0.000     0.000   169.471    11.197    10.891     9.062     0.587     0.310     0.124    17.278     0.000     0.000    82.908   300.124     0.000     0.000     0.000     0.000     0.000     0.000    91.627    13.274    19.115     7.434     1.986     8.351     0.000     0.000     0.000     0.000     0.000     0.000     0.000     0.000     0.000     0.000     0.006     0.000     0.000     0.036     0.000     0.000     0.006     0.000     0.000     0.000     0.077     0.006     0.000     0.000     0.000     0.000     0.000     0.082     0.000     0.000     0.000    12.857    15.359     0.000     0.027     0.005     0.040     0.000 .00000E+00 .00000E+00 0.000E+00 0.000E+00
PAST   12        0    3    0    1.63455E+02     0.582     0.000     0.000     0.000   171.536    12.125     7.323     3.684     0.582     0.308     0.123    17.489     0.000     0.000    82.696   300.123     0.000     0.000     0.000     0.000     0.000     0.000    89.718    12.580    18.426     6.734     0.559     8.351     0.000     0.000     0.000     0.000     0.000     0.000     0.000     0.000     0.000     0.000     0.006     0.000     0.000     0.291    -0.002     0.000     0.050     0.014     0.000     0.000     0.113     0.018     0.000     0.000     0.000     0.000     0.000     0.129     0.000     0.000     0.000    14.421    15.719     0.000     1.000     0.002     0.005     0.000 .00000E+00 .00000E+00 0.000E+00 0.000E+00
PAST   13        0    3    0    1.66559E+02     0.582     0.000     0.000     0.000   171.536    12.125     7.323     3.684     0.582     0.308     0.123    17.489     0.000     0.000    82.696   300.123     0.000     0.000     0.000     0.000     0.000     0.000    89.718    12.580    18.426     6.734     0.559     8.351     0.000     0.000     0.000     0.000     0.000     0.000     0.000     0.000     0.000     0.000     0.006     0.000     0.000     0.291    -0.002     0.000     0.050     0.014     0.000     0.000     0.113     0.018     0.000     0.000     0.000     0.000     0.000     0.129     0.000     0.000     0.000    14.421    15.719     0.000     1.000     0.002     0.005     0.000 .00000E+00 .00000E+00 0.000E+00 0.000E+00
PAST   14        0    3    0    1.41131E+02     0.582     0.000     0.000     0.000   171.536    12.125     7.323     3.684     0.582     0.308     0.123    17.489     0.000     0.000    82.696   300.123     0.000     0.000     0.000     0.000     0.000     0.000    89.718    12.580    18.426     6.734     0.559     8.351     0.000     0.000     0.000     0.000     0.000     0.000     0.000     0.000     0.000     0.000     0.006     0.000     0.000     0.291    -0.002     0.000     0.050     0.014     0.000     0.000     0.113     0.018     0.000     0.000     0.000     0.000     0.000     0.129     0.000     0.000     0.000    14.421    15.719     0.000     1.000     0.002     0.005     0.000 .00000E+00 .00000E+00 0.000E+00 0.000E+00
SWRN   15        0    3    0    1.32210E+02     0.582     0.000     0.000     0.000   171.536    12.125     7.323     3.684     0.582     0.308     0.123    17.489     0.000     0.000    82.696   300.123     0.000     0.000     0.000     0.000     0.000     0.000    82.099    12.580    18.426     6.734     0.559     8.351     0.000     0.000     0.000     0.000     0.000     0.000     0.000     0.000     0.000     0.000     0.006     0.000     0.000     0.291    -0.002     0.000     0.050     0.023     0.001     0.000     0.019     0.002     0.000     0.000     0.000     0.000     0.000     0.129     0.000     0.000     0.000    14.435    15.719     0.000     1.000     0.001     0.010     0.000 .00000E+00 .00000E+00 0.000E+00 0.000E+00
SWRN   16        0    3    0    1.32265E+02     0.582     0.000     0.000     0.000   171.536    12.125     7.323     3.684     0.582     0.308     0.123    17.489     0.000     0.000    82.696   300.123     0.000     0.000     0.000     0.000     0.000     0.000    82.099    12.580    18.426     6.734     0.559     8.351     0.000     0.000     0.000     0.000     0.000     0.000     0.000     0.000     0.000     0.000     0.006     0.000     0.000     0.291    -0.002     0.000     0.050     0.023     0.001     0.000     0.019     0.002     0.000     0.000     0.000     0.000     0.000     0.129     0.000     0.000     0.000    14.435    15.719     0.000     1.000     0.001     0.010     0.000 .00000E+00 .00000E+00 0.000E+00 0.000E+00
SWRN   17        0    3    0    1.34104E+02     0.582     0.000     0.000     0.000   171.536    12.125     7.323     3.684     0.582     0.308     0.123    17.489     0.000     0.000    82.696   300.123     0.000     0.000     0.000     0.000     0.000     0.000    82.099    12.580    18.426     6.734     0.559     8.351     0.000     0.000     0.000     0.000     0.000     0.000     0.000     0.000     0.000     0.000     0.006     0.000     0.000     0.291    -0.002     0.000     0.050     0.023     0.001     0.000     0.019     0.002     0.000     0.000     0.000     0.000     0.000     0.129     0.000     0.000     0.000    14.435    15.719     0.000     1.000     0.001     0.010     0.000 .00000E+00 .00000E+00 0.000E+00 0.000E+00
SWRN   18        0    3    0    1.29687E+02     0.582     0.000     0.000     0.000   171.536     5.403     0.738     0.000     0.582     0.308     0.123    17.489     0.000     0.000    82.696   300.123     0.000     0.000     0.000     0.000     0.000     0.000    88.299    12.580    18.426     6.734     2.575     8.351     0.000     0.000     0.000     0.000     0.000     0.000     0.000     0.000     0.000     0.000     0.006     0.000     0.000     0.102    -0.001     0.000     0.018     0.008     0.000     0.000     0.000     0.000     0.000     0.000     0.000     0.000     0.000     0.195     0.000     0.000     0.000    13.998    15.719     0.000     1.000     0.000     0.001     0.000 .00000E+00 .00000E+00 0.000E+00 0.000E+00
SWRN   19        0    3    0    1.37169E+02     0.582     0.000     0.000     0.000   171.536     5.403     0.738     0.000     0.582     0.308     0.123    17.489     0.000     0.000    82.696   300.123     0.000     0.000     0.000     0.000     0.000     0.000    88.299    12.580    18.426     6.734     2.575     8.351     0.000     0.000     0.000     0.000     0.000     0.000     0.000     0.000     0.000     0.000     0.006     0.000     0.000     0.102    -0.001     0.000     0.018     0.008     0.000     0.000     0.000     0.000     0.000     0.000     0.000     0.000     0.000     0.195     0.000     0.000     0.000    13.998    15.719     0.000     1.000     0.000     0.001     0.000 .00000E+00 .00000E+00 0.000E+00 0.000E+00
SWRN   20        0    3    0    1.43811E+02     0.582     0.000     0.000     0.000   171.536     5.403     0.738     0.000     0.582     0.308     0.123    17.489     0.000     0.000    82.696   300.123     0.000     0.000     0.000     0.000     0.000     0.000    88.299    12.580    18.426     6.734     2.575     8.351     0.000     0.000     0.000     0.000     0.000     0.000     0.000     0.000     0.000     0.000     0.006     0.000     0.000     0.102    -0.001     0.000     0.018     0.008     0.000     0.000     0.000     0.000     0.000     0.000     0.000     0.000     0.000     0.195     0.000     0.000     0.000    13.998    15.719     0.000     1.000     0.000     0.001     0.000 .00000E+00 .00000E+00 0.000E+00 0.000E+00
SWRN   21        0    4    0    1.41078E+01     0.545     0.000     0.000     0.000   155.345    12.121     7.741     3.688     0.545     0.288     0.115    15.838     0.000     0.000    84.335   300.115     0.000     0.000     0.000     0.000     0.000     0.000    82.937    10.157    15.997     4.316    -0.629     8.351     0.000     0.000     0.000     0.000     0.000     0.000     0.000     0.000     0.000     0.000     0.005     0.000     0.000     0.277    -0.001     0.000     0.048     0.022     0.000     0.000     0.000     0.000     0.000     0.000     0.000     0.000     0.000     0.121     0.000     0.000     0.000     7.872    14.000     0.000     0.000     0.000     0.000     0.000 .00000E+00 .00000E+00 0.000E+00 0.000E+00
SWRN   22        0    4    0    1.57588E+01     0.545     0.000     0.000     0.000   155.345    12.121     7.741     3.688     0.545     0.288     0.115    15.838     0.000     0.000    84.335   300.115     0.000     0.000     0.000     0.000     0.000     0.000    82.937    10.157    15.997     4.316    -0.629     8.351     0.000     0.000     0.000     0.000     0.000     0.000     0.000     0.000     0.000     0.000     0.005     0.000     0.000     0.277    -0.001     0.000     0.048     0.022     0.000     0.000     0.000     0.000     0.000     0.000     0.000     0.000     0.000     0.121     0.000     0.000     0.000     7.872    14.000     0.000     0.000     0.000     0.000     0.000 .00000E+00 .00000E+00 0.000E+00 0.000E+00
SWRN   23        0    4    0    1.53427E+01     0.545     0.000     0.000     0.000   155.345    12.121     7.741     3.688     0.545     0.288     0.115    15.838     0.000     0.000    84.335   300.115     0.000     0.000     0.000     0.000     0.000     0.000    82.937    10.157    15.997     4.316    -0.629     8.351     0.000     0.000     0.000     0.000     0.000     0.000     0.000     0.000     0.000     0.000     0.005     0.000     0.000     0.277    -0.001     0.000     0.048     0.022     0.000     0.000     0.000     0.000     0.000     0.000     0.000     0.000     0.000     0.121     0.000     0.000     0.000     7.872    14.000     0.000     0.000     0.000     0.000     0.000 .00000E+00 .00000E+00 0.000E+00 0.000E+00
PAST   24        0    5    0    1.75354E+02     0.736     0.000     0.000     0.000   219.276    12.125     6.484     3.684     0.736     0.388     0.155    22.356     0.000     0.000    77.877   300.155     0.000     0.000     0.000     0.000     0.000     0.000    88.677    19.959    25.800    14.119     4.114     8.351     0.000     0.000     0.000     0.000     0.000     0.000     0.000     0.000     0.000     0.000     0.007     0.000     0.000     0.320    -0.002     0.000     0.055    -0.056     0.000     0.000     0.979     0.137     0.000     0.000     0.000     0.000     0.000     0.163     0.000     0.000     0.000    19.835     4.026     0.000     0.000     0.016     0.123     0.000 .00000E+00 .00000E+00 0.000E+00 0.000E+00
SWRN   25        0    5    0    1.91430E+02     0.736     0.000     0.000     0.000   219.276    12.125     6.476     3.684     0.736     0.388     0.155    22.356     0.000     0.000    77.877   300.155     0.000     0.000     0.000     0.000     0.000     0.000    80.419    19.959    25.800    14.119     4.114     8.351     0.000     0.000     0.000     0.000     0.000     0.000     0.000     0.000     0.000     0.000     0.007     0.000     0.000     0.320    -0.002     0.000     0.055     0.018     0.000     0.000     0.207     0.015     0.000     0.000     0.000     0.000     0.000     0.163     0.000     0.000     0.000    19.867     4.026     0.000     0.027     0.010     0.215     0.000 .00000E+00 .00000E+00 0.000E+00 0.000E+00
SWRN   26        0    5    0    1.43663E+02     0.736     0.000     0.000     0.000   219.276    12.125     6.476     3.684     0.736     0.388     0.155    22.356     0.000     0.000    77.877   300.155     0.000     0.000     0.000     0.000     0.000     0.000    80.419    19.959    25.800    14.119     4.114     8.351     0.000     0.000     0.000     0.000     0.000     0.000     0.000     0.000     0.000     0.000     0.007     0.000     0.000     0.320    -0.002     0.000     0.055     0.018     0.000     0.000     0.207     0.015     0.000     0.000     0.000     0.000     0.000     0.163     0.000     0.000     0.000    19.867     4.026     0.000     0.027     0.010     0.215     0.000 .00000E+00 .00000E+00 0.000E+00 0.000E+00
PAST   27        0    6    0    1.15490E+02     0.617     0.000     0.000     0.000   173.259    12.125     7.286     3.684     0.617     0.326     0.130    17.664     0.000     0.000    82.531   300.130     0.000     0.000     0.000     0.000     0.000     0.000    89.365    13.267    19.107     7.427     0.905     8.351     0.000     0.000     0.000     0.000     0.000     0.000     0.000     0.000     0.000     0.000     0.006     0.000     0.000     0.305    -0.002     0.000     0.052     0.007     0.000     0.000     0.221     0.034     0.000     0.000     0.000     0.000     0.000     0.137     0.000     0.000     0.000    15.352    15.374     0.000     0.000     0.004     0.013     0.000 .00000E+00 .00000E+00 0.000E+00 0.000E+00
PAST   28        0    6    0    1.11475E+02     0.617     0.000     0.000     0.000   173.259    12.125     7.286     3.684     0.617     0.326     0.130    17.664     0.000     0.000    82.531   300.130     0.000     0.000     0.000     0.000     0.000     0.000    89.365    13.267    19.107     7.427     0.905     8.351     0.000     0.000     0.000     0.000     0.000     0.000     0.000     0.000     0.000     0.000     0.006     0.000     0.000     0.305    -0.002     0.000     0.052     0.007     0.000     0.000     0.221     0.034     0.000     0.000     0.000     0.000     0.000     0.137     0.000     0.000     0.000    15.352    15.374     0.000     0.000     0.004     0.013     0.000 .00000E+00 .00000E+00 0.000E+00 0.000E+00
SWRN   29        0    6    0    1.14213E+02     0.617     0.000     0.000     0.000   173.259    12.125     7.285     3.684     0.617     0.326     0.130    17.664     0.000     0.000    82.531   300.130     0.000     0.000     0.000     0.000     0.000     0.000    81.465    13.267    19.107     7.427     0.906     8.351     0.000     0.000     0.000     0.000     0.000     0.000     0.000     0.000     0.000     0.000     0.006     0.000     0.000     0.305    -0.002     0.000     0.052     0.024     0.001     0.000     0.039     0.003     0.000     0.000     0.000     0.000     0.000     0.137     0.000     0.000     0.000    15.365    15.374     0.000     0.000     0.002     0.022     0.000 .00000E+00 .00000E+00 0.000E+00 0.000E+00
SWRN   30        0    6    0    1.11918E+02     0.617     0.000     0.000     0.000   173.259    12.125     7.285     3.684     0.617     0.326     0.130    17.664     0.000     0.000    82.531   300.130     0.000     0.000     0.000     0.000     0.000     0.000    81.465    13.267    19.107     7.427     0.906     8.351     0.000     0.000     0.000     0.000     0.000     0.000     0.000     0.000     0.000     0.000     0.006     0.000     0.000     0.305    -0.002     0.000     0.052     0.024     0.001     0.000     0.039     0.003     0.000     0.000     0.000     0.000     0.000     0.137     0.000     0.000     0.000    15.365    15.374     0.000     0.000     0.002     0.022     0.000 .00000E+00 .00000E+00 0.000E+00 0.000E+00
SWRN   31        0    6    0    1.12431E+02     0.617     0.000     0.000     0.000   173.259    12.125     7.285     3.684     0.617     0.326     0.130    17.664     0.000     0.000    82.531   300.130     0.000     0.000     0.000     0.000     0.000     0.000    81.465    13.267    19.107     7.427     0.906     8.351     0.000     0.000     0.000     0.000     0.000     0.000     0.000     0.000     0.000     0.000     0.006     0.000     0.000     0.305    -0.002     0.000     0.052     0.024     0.001     0.000     0.039     0.003     0.000     0.000     0.000     0.000     0.000     0.137     0.000     0.000     0.000    15.365    15.374     0.000     0.000     0.002     0.022     0.000 .00000E+00 .00000E+00 0.000E+00 0.000E+00
PAST   32        0    7    0    1.13866E+03     0.757     0.000     0.000     0.000   223.459    12.125     6.432     3.684     0.757     0.399     0.160    22.782     0.000     0.000    77.457   300.160     0.000     0.000     0.000     0.000     0.000     0.000    88.655    20.019    25.859    14.179     4.128     8.351     0.000     0.000     0.000     0.000     0.000     0.000     0.000     0.000     0.000     0.000     0.008     0.000     0.000     0.320    -0.002     0.000     0.055    -0.056     0.000     0.000     0.964     0.138     0.000     0.000     0.000     0.000     0.000     0.168     0.000     0.000     0.000    19.856     3.989     0.000     0.000     0.016     0.123     0.000 .00000E+00 .00000E+00 0.000E+00 0.000E+00
PAST   33        0    7    0    1.11023E+03     0.757     0.000     0.000     0.000   223.459    12.125     6.432     3.684     0.757     0.399     0.160    22.782     0.000     0.000    77.457   300.160     0.000     0.000     0.000     0.000     0.000     0.000    88.655    20.019    25.859    14.179     4.128     8.351     0.000     0.000     0.000     0.000     0.000     0.000     0.000     0.000     0.000     0.000     0.008     0.000     0.000     0.320    -0.002     0.000     0.055    -0.056     0.000     0.000     0.964     0.138     0.000     0.000     0.000     0.000     0.000     0.168     0.000     0.000     0.000    19.856     3.989     0.000     0.000     0.016     0.123     0.000 .00000E+00 .00000E+00 0.000E+00 0.000E+00
PAST   34        0    7    0    1.18496E+03     0.757     0.000     0.000     0.000   223.459    12.125     6.432     3.684     0.757     0.399     0.160    22.782     0.000     0.000    77.457   300.160     0.000     0.000     0.000     0.000     0.000     0.000    88.655    20.019    25.859    14.179     4.128     8.351     0.000     0.000     0.000     0.000     0.000     0.000     0.000     0.000     0.000     0.000     0.008     0.000     0.000     0.320    -0.002     0.000     0.055    -0.056     0.000     0.000     0.964     0.138     0.000     0.000     0.000     0.000     0.000     0.168     0.000     0.000     0.000    19.856     3.989     0.000     0.000     0.016     0.123     0.000 .00000E+00 .00000E+00 0.000E+00 0.000E+00
PAST   35        0    8    0    1.11140E+02     0.614     0.000     0.000     0.000   168.273    12.125     7.400     3.684     0.614     0.324     0.130    17.156     0.000     0.000    83.039   300.130     0.000     0.000     0.000     0.000     0.000     0.000    89.751    12.336    18.176     6.496     0.447     8.351     0.000     0.000     0.000     0.000     0.000     0.000     0.000     0.000     0.000     0.000     0.006     0.000     0.000     0.291    -0.002     0.000     0.050     0.018     0.000     0.000     0.073     0.011     0.000     0.000     0.000     0.000     0.000     0.136     0.000     0.000     0.000    14.356    16.104     0.000     1.000     0.001     0.004     0.000 .00000E+00 .00000E+00 0.000E+00 0.000E+00
PAST   36        0    8    0    1.14950E+02     0.614     0.000     0.000     0.000   168.273    12.125     7.400     3.684     0.614     0.324     0.130    17.156     0.000     0.000    83.039   300.130     0.000     0.000     0.000     0.000     0.000     0.000    89.751    12.336    18.176     6.496     0.447     8.351     0.000     0.000     0.000     0.000     0.000     0.000     0.000     0.000     0.000     0.000     0.006     0.000     0.000     0.291    -0.002     0.000     0.050     0.018     0.000     0.000     0.073     0.011     0.000     0.000     0.000     0.000     0.000     0.136     0.000     0.000     0.000    14.356    16.104     0.000     1.000     0.001     0.004     0.000 .00000E+00 .00000E+00 0.000E+00 0.000E+00
SWRN   37        0    8    0    1.61287E+01     0.614     0.000     0.000     0.000   168.273    12.125     7.399     3.684     0.614     0.324     0.130    17.156     0.000     0.000    83.039   300.130     0.000     0.000     0.000     0.000     0.000     0.000    82.139    12.336    18.176     6.496     0.447     8.351     0.000     0.000     0.000     0.000     0.000     0.000     0.000     0.000     0.000     0.000     0.006     0.000     0.000     0.291    -0.002     0.000     0.050     0.023     0.001     0.000     0.019     0.001     0.000     0.000     0.000     0.000     0.000     0.136     0.000     0.000     0.000    14.366    16.104     0.000     0.000     0.001     0.011     0.000 .00000E+00 .00000E+00 0.000E+00 0.000E+00
SWRN   38        0    8    0    1.89265E+01     0.614     0.000     0.000     0.000   168.273    12.125     7.399     3.684     0.614     0.324     0.130    17.156     0.000     0.000    83.039   300.130     0.000     0.000     0.000     0.000     0.000     0.000    82.139    12.336    18.176     6.496     0.447     8.351     0.000     0.000     0.000     0.000     0.000     0.000     0.000     0.000     0.000     0.000     0.006     0.000     0.000     0.291    -0.002     0.000     0.050     0.023     0.001     0.000     0.019     0.001     0.000     0.000     0.000     0.000     0.000     0.136     0.000     0.000     0.000    14.366    16.104     0.000     0.000     0.001     0.011     0.000 .00000E+00 .00000E+00 0.000E+00 0.000E+00
PAST   39        0    9    0    1.71887E+02     0.841     0.000     0.000     0.000   235.823    12.125     6.285     3.684     0.841     0.444     0.178    24.043     0.000     0.000    76.224   300.178     0.000     0.000     0.000     0.000     0.000     0.000    88.251    23.238    29.078    17.397     5.690     8.351     0.000     0.000     0.000     0.000     0.000     0.000     0.000     0.000     0.000     0.000     0.008     0.000     0.000     0.339    -0.002     0.000     0.058    -0.062     0.000     0.000     1.068     0.152     0.000     0.000     0.000     0.000     0.000     0.186     0.000     0.000     0.000    20.890     1.866     0.000     0.000     0.018     0.182     0.000 .00000E+00 .00000E+00 0.000E+00 0.000E+00
PAST   40        0    9    0    1.11657E+03     0.841     0.000     0.000     0.000   235.823    12.125     6.285     3.684     0.841     0.444     0.178    24.043     0.000     0.000    76.224   300.178     0.000     0.000     0.000     0.000     0.000     0.000    88.251    23.238    29.078    17.397     5.690     8.351     0.000     0.000     0.000     0.000     0.000     0.000     0.000     0.000     0.000     0.000     0.008     0.000     0.000     0.339    -0.002     0.000     0.058    -0.062     0.000     0.000     1.068     0.152     0.000     0.000     0.000     0.000     0.000     0.186     0.000     0.000     0.000    20.890     1.866     0.000     0.000     0.018     0.182     0.000 .00000E+00 .00000E+00 0.000E+00 0.000E+00
PAST   41        0   10    0    1.31800E+02     0.769     0.000     0.000     0.000   220.296    12.125     6.472     3.684     0.769     0.406     0.162    22.460     0.000     0.000    77.784   300.163     0.000     0.000     0.000     0.000     0.000     0.000    88.671    19.195    25.035    13.354     3.727     8.351     0.000     0.000     0.000     0.000     0.000     0.000     0.000     0.000     0.000     0.000     0.008     0.000     0.000     0.319    -0.002     0.000     0.055    -0.048     0.000     0.000     0.890     0.124     0.000     0.000     0.000     0.000     0.000     0.171     0.000     0.000     0.000    18.950     4.590     0.000     0.000     0.015     0.101     0.000 .00000E+00 .00000E+00 0.000E+00 0.000E+00
PAST   42        0   10    0    1.34544E+02     0.769     0.000     0.000     0.000   220.296    12.125     6.472     3.684     0.769     0.406     0.162    22.460     0.000     0.000    77.784   300.163     0.000     0.000     0.000     0.000     0.000     0.000    88.671    19.195    25.035    13.354     3.727     8.351     0.000     0.000     0.000     0.000     0.000     0.000     0.000     0.000     0.000     0.000     0.008     0.000     0.000     0.319    -0.002     0.000     0.055    -0.048     0.000     0.000     0.890     0.124     0.000     0.000     0.000     0.000     0.000     0.171     0.000     0.000     0.000    18.950     4.590     0.000     0.000     0.015     0.101     0.000 .00000E+00 .00000E+00 0.000E+00 0.000E+00
PAST   43        0   10    0    1.32507E+02     0.769     0.000     0.000     0.000   220.296    12.125     6.472     3.684     0.769     0.406     0.162    22.460     0.000     0.000    77.784   300.163     0.000     0.000     0.000     0.000     0.000     0.000    88.671    19.195    25.035    13.354     3.727     8.351     0.000     0.000     0.000     0.000     0.000     0.000     0.000     0.000     0.000     0.000     0.008     0.000     0.000     0.319    -0.002     0.000     0.055    -0.048     0.000     0.000     0.890     0.124     0.000     0.000     0.000     0.000     0.000     0.171     0.000     0.000     0.000    18.950     4.590     0.000     0.000     0.015     0.101     0.000 .00000E+00 .00000E+00 0.000E+00 0.000E+00
PAST   44        0   10    0    1.32771E+02     0.769     0.000     0.000     0.000   220.296    12.125     6.472     3.684     0.769     0.406     0.162    22.460     0.000     0.000    77.784   300.163     0.000     0.000     0.000     0.000     0.000     0.000    88.671    19.195    25.035    13.354     3.727     8.351     0.000     0.000     0.000     0.000     0.000     0.000     0.000     0.000     0.000     0.000     0.008     0.000     0.000     0.319    -0.002     0.000     0.055    -0.048     0.000     0.000     0.890     0.124     0.000     0.000     0.000     0.000     0.000     0.171     0.000     0.000     0.000    18.950     4.590     0.000     0.000     0.015     0.101     0.000 .00000E+00 .00000E+00 0.000E+00 0.000E+00
SWRN   45        0   10    0    1.11872E+03     0.769     0.000     0.000     0.000   220.296    12.125     6.467     3.684     0.769     0.406     0.162    22.460     0.000     0.000    77.784   300.163     0.000     0.000     0.000     0.000     0.000     0.000    80.414    19.195    25.035    13.354     3.727     8.351     0.000     0.000     0.000     0.000     0.000     0.000     0.000     0.000     0.000     0.000     0.008     0.000     0.000     0.319    -0.002     0.000     0.055     0.019     0.000     0.000     0.182     0.013     0.000     0.000     0.000     0.000     0.000     0.171     0.000     0.000     0.000    18.986     4.590     0.000     0.000     0.009     0.180     0.000 .00000E+00 .00000E+00 0.000E+00 0.000E+00
SWRN   46        0   10    0    1.19114E+03     0.769     0.000     0.000     0.000   220.296    12.125     6.467     3.684     0.769     0.406     0.162    22.460     0.000     0.000    77.784   300.163     0.000     0.000     0.000     0.000     0.000     0.000    80.414    19.195    25.035    13.354     3.727     8.351     0.000     0.000     0.000     0.000     0.000     0.000     0.000     0.000     0.000     0.000     0.008     0.000     0.000     0.319    -0.002     0.000     0.055     0.019     0.000     0.000     0.182     0.013     0.000     0.000     0.000     0.000     0.000     0.171     0.000     0.000     0.000    18.986     4.590     0.000     0.000     0.009     0.180     0.000 .00000E+00 .00000E+00 0.000E+00 0.000E+00
SWRN   47        0   11    0    1.14907E+03     0.979     0.000     0.000     0.000   275.503    12.125     5.880     3.684     0.979     0.517     0.207    28.088     0.000     0.000    72.222   300.207     0.000     0.000     0.000     0.000     0.000     0.000    78.860    28.776    34.616    22.935     8.285     8.351     0.000     0.000     0.000     0.000     0.000     0.000     0.000     0.000     0.000     0.000     0.010     0.000     0.000     0.375    -0.002     0.000     0.064     0.021     0.001     0.000     0.249     0.018     0.000     0.000     0.000     0.000     0.000     0.217     0.000     0.000     0.000    22.980     1.495     0.000     0.000     0.013     0.267     0.002 .00000E+00 .00000E+00 0.000E+00 0.000E+00
SWRN   48        0   11    0    1.11749E+03     0.979     0.000     0.000     0.000   275.503    12.125     5.880     3.684     0.979     0.517     0.207    28.088     0.000     0.000    72.222   300.207     0.000     0.000     0.000     0.000     0.000     0.000    78.860    28.776    34.616    22.935     8.285     8.351     0.000     0.000     0.000     0.000     0.000     0.000     0.000     0.000     0.000     0.000     0.010     0.000     0.000     0.375    -0.002     0.000     0.064     0.021     0.001     0.000     0.249     0.018     0.000     0.000     0.000     0.000     0.000     0.217     0.000     0.000     0.000    22.980     1.495     0.000     0.000     0.013     0.267     0.002 .00000E+00 .00000E+00 0.000E+00 0.000E+00
PAST   49        0   12    0    1.91008E+02     0.935     0.000     0.000     0.000   255.358    12.125     6.082     3.684     0.935     0.494     0.198    26.034     0.000     0.000    74.262   300.198     0.000     0.000     0.000     0.000     0.000     0.000    88.163    26.107    31.942    20.273     7.045     8.351     0.000     0.000     0.000     0.000     0.000     0.000     0.000     0.000     0.000     0.000     0.009     0.000     0.000     0.348    -0.002     0.000     0.060    -0.062     0.000     0.000     1.093     0.152     0.000     0.000     0.000     0.000     0.000     0.207     0.000     0.000     0.000    21.938     0.893     0.000     0.000     0.018     0.233     0.000 .00000E+00 .00000E+00 0.000E+00 0.000E+00
PAST   50        0   12    0    1.11823E+03     0.935     0.000     0.000     0.000   255.358    12.125     6.082     3.684     0.935     0.494     0.198    26.034     0.000     0.000    74.262   300.198     0.000     0.000     0.000     0.000     0.000     0.000    88.163    26.107    31.942    20.273     7.045     8.351     0.000     0.000     0.000     0.000     0.000     0.000     0.000     0.000     0.000     0.000     0.009     0.000     0.000     0.348    -0.002     0.000     0.060    -0.062     0.000     0.000     1.093     0.152     0.000     0.000     0.000     0.000     0.000     0.207     0.000     0.000     0.000    21.938     0.893     0.000     0.000     0.018     0.233     0.000 .00000E+00 .00000E+00 0.000E+00 0.000E+00
SWRN   51        0   12    0    1.55681E+02     0.935     0.000     0.000     0.000   255.358    12.125     6.068     3.684     0.935     0.494     0.198    26.034     0.000     0.000    74.262   300.198     0.000     0.000     0.000     0.000     0.000     0.000    79.584    26.107    31.942    20.273     7.043     8.351     0.000     0.000     0.000     0.000     0.000     0.000     0.000     0.000     0.000     0.000     0.009     0.000     0.000     0.348    -0.002     0.000     0.060     0.020     0.000     0.000     0.234     0.016     0.000     0.000     0.000     0.000     0.000     0.207     0.000     0.000     0.000    21.981     0.893     0.000     0.000     0.012     0.291     0.000 .00000E+00 .00000E+00 0.000E+00 0.000E+00
SWRN   52        0   12    0    1.58995E+02     0.935     0.000     0.000     0.000   255.358    12.125     6.068     3.684     0.935     0.494     0.198    26.034     0.000     0.000    74.262   300.198     0.000     0.000     0.000     0.000     0.000     0.000    79.584    26.107    31.942    20.273     7.043     8.351     0.000     0.000     0.000     0.000     0.000     0.000     0.000     0.000     0.000     0.000     0.009     0.000     0.000     0.348    -0.002     0.000     0.060     0.020     0.000     0.000     0.234     0.016     0.000     0.000     0.000     0.000     0.000     0.207     0.000     0.000     0.000    21.981     0.893     0.000     0.000     0.012     0.291     0.000 .00000E+00 .00000E+00 0.000E+00 0.000E+00
SWRN   53        0   12    0    1.53446E+02     0.935     0.000     0.000     0.000   255.358    12.125     6.068     3.684     0.935     0.494     0.198    26.034     0.000     0.000    74.262   300.198     0.000     0.000     0.000     0.000     0.000     0.000    79.584    26.107    31.942    20.273     7.043     8.351     0.000     0.000     0.000     0.000     0.000     0.000     0.000     0.000     0.000     0.000     0.009     0.000     0.000     0.348    -0.002     0.000     0.060     0.020     0.000     0.000     0.234     0.016     0.000     0.000     0.000     0.000     0.000     0.207     0.000     0.000     0.000    21.981     0.893     0.000     0.000     0.012     0.291     0.000 .00000E+00 .00000E+00 0.000E+00 0.000E+00
SWRN   54        0   13    0    1.30221E+02     0.827     0.000     0.000     0.000   224.104    12.125     6.419     3.684     0.827     0.437     0.175    22.848     0.000     0.000    77.414   300.175     0.000     0.000     0.000     0.000     0.000     0.000    80.389    20.508    26.348    14.667     4.371     8.351     0.000     0.000     0.000     0.000     0.000     0.000     0.000     0.000     0.000     0.000     0.008     0.000     0.000     0.321    -0.002     0.000     0.055     0.019     0.000     0.000     0.198     0.014     0.000     0.000     0.000     0.000     0.000     0.183     0.000     0.000     0.000    19.913     3.703     0.000     0.027     0.010     0.214     0.000 .00000E+00 .00000E+00 0.000E+00 0.000E+00
SWRN   55        0   13    0    1.70255E+02     0.827     0.000     0.000     0.000   224.104    12.125     6.419     3.684     0.827     0.437     0.175    22.848     0.000     0.000    77.414   300.175     0.000     0.000     0.000     0.000     0.000     0.000    80.389    20.508    26.348    14.667     4.371     8.351     0.000     0.000     0.000     0.000     0.000     0.000     0.000     0.000     0.000     0.000     0.008     0.000     0.000     0.321    -0.002     0.000     0.055     0.019     0.000     0.000     0.198     0.014     0.000     0.000     0.000     0.000     0.000     0.183     0.000     0.000     0.000    19.913     3.703     0.000     0.027     0.010     0.214     0.000 .00000E+00 .00000E+00 0.000E+00 0.000E+00
PAST   56        0   14    0    1.53823E+02     0.981     0.000     0.000     0.000   268.734    12.125     5.962     3.684     0.981     0.518     0.207    27.398     0.000     0.000    72.913   300.207     0.000     0.000     0.000     0.000     0.000     0.000    87.767    27.080    32.921    21.240     7.479     8.351     0.000     0.000     0.000     0.000     0.000     0.000     0.000     0.000     0.000     0.000     0.010     0.000     0.000     0.366    -0.002     0.000     0.063    -0.058     0.000     0.000     1.036     0.149     0.000     0.000     0.000     0.000     0.000     0.217     0.000     0.000     0.000    21.995     0.836     0.000     0.000     0.017     0.228     0.000 .00000E+00 .00000E+00 0.000E+00 0.000E+00
PAST   57        0   14    0    1.52066E+02     0.981     0.000     0.000     0.000   268.734    12.125     5.962     3.684     0.981     0.518     0.207    27.398     0.000     0.000    72.913   300.207     0.000     0.000     0.000     0.000     0.000     0.000    87.767    27.080    32.921    21.240     7.479     8.351     0.000     0.000     0.000     0.000     0.000     0.000     0.000     0.000     0.000     0.000     0.010     0.000     0.000     0.366    -0.002     0.000     0.063    -0.058     0.000     0.000     1.036     0.149     0.000     0.000     0.000     0.000     0.000     0.217     0.000     0.000     0.000    21.995     0.836     0.000     0.000     0.017     0.228     0.000 .00000E+00 .00000E+00 0.000E+00 0.000E+00
SWRN   58        0   14    0    1.11505E+03     0.981     0.000     0.000     0.000   268.734    12.125     5.951     3.684     0.981     0.518     0.207    27.398     0.000     0.000    72.913   300.207     0.000     0.000     0.000     0.000     0.000     0.000    78.901    27.080    32.921    21.240     7.478     8.351     0.000     0.000     0.000     0.000     0.000     0.000     0.000     0.000     0.000     0.000     0.010     0.000     0.000     0.365    -0.002     0.000     0.063     0.022     0.001     0.000     0.214     0.015     0.000     0.000     0.000     0.000     0.000     0.217     0.000     0.000     0.000    22.053     0.836     0.000     0.000     0.011     0.273     0.000 .00000E+00 .00000E+00 0.000E+00 0.000E+00
SWRN   59        0   14    0    1.10560E+03     0.981     0.000     0.000     0.000   268.734    12.125     5.951     3.684     0.981     0.518     0.207    27.398     0.000     0.000    72.913   300.207     0.000     0.000     0.000     0.000     0.000     0.000    78.901    27.080    32.921    21.240     7.478     8.351     0.000     0.000     0.000     0.000     0.000     0.000     0.000     0.000     0.000     0.000     0.010     0.000     0.000     0.365    -0.002     0.000     0.063     0.022     0.001     0.000     0.214     0.015     0.000     0.000     0.000     0.000     0.000     0.217     0.000     0.000     0.000    22.053     0.836     0.000     0.000     0.011     0.273     0.000 .00000E+00 .00000E+00 0.000E+00 0.000E+00
SWRN   60        0   14    0    1.79395E+02     0.981     0.000     0.000     0.000   268.734    12.125     5.951     3.684     0.981     0.518     0.207    27.398     0.000     0.000    72.913   300.207     0.000     0.000     0.000     0.000     0.000     0.000    78.901    27.080    32.921    21.240     7.478     8.351     0.000     0.000     0.000     0.000     0.000     0.000     0.000     0.000     0.000     0.000     0.010     0.000     0.000     0.365    -0.002     0.000     0.063     0.022     0.001     0.000     0.214     0.015     0.000     0.000     0.000     0.000     0.000     0.217     0.000     0.000     0.000    22.053     0.836     0.000     0.000     0.011     0.273     0.000 .00000E+00 .00000E+00 0.000E+00 0.000E+00
PAST   61        0   15    0    1.10463E+01     0.770     0.000     0.000     0.000   202.420    11.215     9.737     8.108     0.770     0.407     0.163    20.637     0.000     0.000    79.607   300.163     0.000     0.000     0.000     0.000     0.000     0.000    89.060    17.064    22.904    11.224     7.579     8.351     0.000     0.000     0.000     0.000     0.000     0.000     0.000     0.000     0.000     0.000     0.008     0.000     0.000     0.074     0.000     0.000     0.013    -0.254     0.000     0.000     2.973     0.426     0.000     0.000     0.000     0.000     0.000     0.162     0.000     0.000     0.000    13.738     7.749     0.000     0.000     0.055     0.153     0.000 .00000E+00 .00000E+00 0.000E+00 0.000E+00
PAST   62        0   15    0    1.11625E+01     0.770     0.000     0.000     0.000   202.420    11.215     9.737     8.108     0.770     0.407     0.163    20.637     0.000     0.000    79.607   300.163     0.000     0.000     0.000     0.000     0.000     0.000    89.060    17.064    22.904    11.224     7.579     8.351     0.000     0.000     0.000     0.000     0.000     0.000     0.000     0.000     0.000     0.000     0.008     0.000     0.000     0.074     0.000     0.000     0.013    -0.254     0.000     0.000     2.973     0.426     0.000     0.000     0.000     0.000     0.000     0.162     0.000     0.000     0.000    13.738     7.749     0.000     0.000     0.055     0.153     0.000 .00000E+00 .00000E+00 0.000E+00 0.000E+00
SWRN   63        0   15    0    1.31647E+01     0.770     0.000     0.000     0.000   202.420    12.125     6.720     3.684     0.770     0.407     0.163    20.637     0.000     0.000    79.607   300.163     0.000     0.000     0.000     0.000     0.000     0.000    80.545    17.064    22.904    11.224     2.722     8.351     0.000     0.000     0.000     0.000     0.000     0.000     0.000     0.000     0.000     0.000     0.008     0.000     0.000     0.318    -0.002     0.000     0.055     0.021     0.000     0.000     0.140     0.010     0.000     0.000     0.000     0.000     0.000     0.171     0.000     0.000     0.000    17.818     7.749     0.000     0.000     0.007     0.109     0.000 .00000E+00 .00000E+00 0.000E+00 0.000E+00
SWRN   64        0   15    0    1.15008E+01     0.770     0.000     0.000     0.000   202.420    12.125     6.720     3.684     0.770     0.407     0.163    20.637     0.000     0.000    79.607   300.163     0.000     0.000     0.000     0.000     0.000     0.000    80.545    17.064    22.904    11.224     2.722     8.351     0.000     0.000     0.000     0.000     0.000     0.000     0.000     0.000     0.000     0.000     0.008     0.000     0.000     0.318    -0.002     0.000     0.055     0.021     0.000     0.000     0.140     0.010     0.000     0.000     0.000     0.000     0.000     0.171     0.000     0.000     0.000    17.818     7.749     0.000     0.000     0.007     0.109     0.000 .00000E+00 .00000E+00 0.000E+00 0.000E+00
SWRN   65        0   15    0    1.94231E+00     0.770     0.000     0.000     0.000   202.420    11.747     9.621     7.577     0.770     0.407     0.163    20.637     0.000     0.000    79.607   300.163     0.000     0.000     0.000     0.000     0.000     0.000    80.335    17.064    22.904    11.224     7.576     8.351     0.000     0.000     0.000     0.000     0.000     0.000     0.000     0.000     0.000     0.000     0.008     0.000     0.000     0.074     0.000     0.000     0.013    -0.023     0.000     0.000     0.705     0.050     0.000     0.000     0.000     0.000     0.000     0.162     0.000     0.000     0.000    13.739     7.749     0.000     0.000     0.039     0.271     0.000 .00000E+00 .00000E+00 0.000E+00 0.000E+00
SWRN   66        0   15    0    1.65529E+00     0.770     0.000     0.000     0.000   202.420    11.747     9.621     7.577     0.770     0.407     0.163    20.637     0.000     0.000    79.607   300.163     0.000     0.000     0.000     0.000     0.000     0.000    80.335    17.064    22.904    11.224     7.576     8.351     0.000     0.000     0.000     0.000     0.000     0.000     0.000     0.000     0.000     0.000     0.008     0.000     0.000     0.074     0.000     0.000     0.013    -0.023     0.000     0.000     0.705     0.050     0.000     0.000     0.000     0.000     0.000     0.162     0.000     0.000     0.000    13.739     7.749     0.000     0.000     0.039     0.271     0.000 .00000E+00 .00000E+00 0.000E+00 0.000E+00
SWRN   67        0   15    0    1.87266E+00     0.770     0.000     0.000     0.000   202.420    11.747     9.621     7.577     0.770     0.407     0.163    20.637     0.000     0.000    79.607   300.163     0.000     0.000     0.000     0.000     0.000     0.000    80.335    17.064    22.904    11.224     7.576     8.351     0.000     0.000     0.000     0.000     0.000     0.000     0.000     0.000     0.000     0.000     0.008     0.000     0.000     0.074     0.000     0.000     0.013    -0.023     0.000     0.000     0.705     0.050     0.000     0.000     0.000     0.000     0.000     0.162     0.000     0.000     0.000    13.739     7.749     0.000     0.000     0.039     0.271     0.000 .00000E+00 .00000E+00 0.000E+00 0.000E+00
PAST   68        0   16    0    1.25083E+02     2.170     2.163     0.000     0.000    13.758     2.215    14.395    13.594     0.007     0.003     0.001     1.403     0.000     0.000    98.599   300.001     0.000     0.000     0.000     0.000     0.000     0.000    98.833   -10.224     0.496   -20.945   -12.977     8.550     0.000     0.000     0.000     0.000     0.000     0.000     0.000     0.000     0.000     0.000     0.000     0.000     0.000     0.000     0.000     0.000     0.000     0.000     0.000     0.000     0.000     0.000     0.000     0.000     0.000     0.000     0.000     0.002     0.000     0.000     0.000     0.000     0.000     0.000     0.000     0.000     0.000     0.000 .00000E+00 .00000E+00 0.000E+00 0.000E+00
PAST   69        0   16    0    1.15401E+02     2.170     2.163     0.000     0.000    13.758     2.215    14.395    13.594     0.007     0.003     0.001     1.403     0.000     0.000    98.599   300.001     0.000     0.000     0.000     0.000     0.000     0.000    98.833   -10.224     0.496   -20.945   -12.977     8.550     0.000     0.000     0.000     0.000     0.000     0.000     0.000     0.000     0.000     0.000     0.000     0.000     0.000     0.000     0.000     0.000     0.000     0.000     0.000     0.000     0.000     0.000     0.000     0.000     0.000     0.000     0.000     0.002     0.000     0.000     0.000     0.000     0.000     0.000     0.000     0.000     0.000     0.000 .00000E+00 .00000E+00 0.000E+00 0.000E+00
PAST   70        0   16    0    1.14908E+02     2.170     2.163     0.000     0.000    13.758     2.215    14.395    13.594     0.007     0.003     0.001     1.403     0.000     0.000    98.599   300.001     0.000     0.000     0.000     0.000     0.000     0.000    98.833   -10.224     0.496   -20.945   -12.977     8.550     0.000     0.000     0.000     0.000     0.000     0.000     0.000     0.000     0.000     0.000     0.000     0.000     0.000     0.000     0.000     0.000     0.000     0.000     0.000     0.000     0.000     0.000     0.000     0.000     0.000     0.000     0.000     0.002     0.000     0.000     0.000     0.000     0.000     0.000     0.000     0.000     0.000     0.000 .00000E+00 .00000E+00 0.000E+00 0.000E+00
SWRN   71        0   16    0    1.55489E+02     2.170     2.163     0.000     0.000    13.758     2.215    14.395    13.594     0.007     0.003     0.001     1.403     0.000     0.000    98.599   300.001     0.000     0.000     0.000     0.000     0.000     0.000    98.145   -10.224     0.496   -20.945   -12.977     8.550     0.000     0.000     0.000     0.000     0.000     0.000     0.000     0.000     0.000     0.000     0.000     0.000     0.000     0.000     0.000     0.000     0.000     0.000     0.000     0.000     0.000     0.000     0.000     0.000     0.000     0.000     0.000     0.002     0.000     0.000     0.000     0.000     0.000     0.000     0.000     0.000     0.000     0.000 .00000E+00 .00000E+00 0.000E+00 0.000E+00
SWRN   72        0   16    0    1.50978E+02     2.170     2.163     0.000     0.000    13.758     2.215    14.395    13.594     0.007     0.003     0.001     1.403     0.000     0.000    98.599   300.001     0.000     0.000     0.000     0.000     0.000     0.000    98.145   -10.224     0.496   -20.945   -12.977     8.550     0.000     0.000     0.000     0.000     0.000     0.000     0.000     0.000     0.000     0.000     0.000     0.000     0.000     0.000     0.000     0.000     0.000     0.000     0.000     0.000     0.000     0.000     0.000     0.000     0.000     0.000     0.000     0.002     0.000     0.000     0.000     0.000     0.000     0.000     0.000     0.000     0.000     0.000 .00000E+00 .00000E+00 0.000E+00 0.000E+00
SWRN   73        0   16    0    1.34293E+02     2.170     2.163     0.000     0.000    13.758     2.215    14.395    13.594     0.007     0.003     0.001     1.403     0.000     0.000    98.599   300.001     0.000     0.000     0.000     0.000     0.000     0.000    98.145   -10.224     0.496   -20.945   -12.977     8.550     0.000     0.000     0.000     0.000     0.000     0.000     0.000     0.000     0.000     0.000     0.000     0.000     0.000     0.000     0.000     0.000     0.000     0.000     0.000     0.000     0.000     0.000     0.000     0.000     0.000     0.000     0.000     0.002     0.000     0.000     0.000     0.000     0.000     0.000     0.000     0.000     0.000     0.000 .00000E+00 .00000E+00 0.000E+00 0.000E+00
PAST   74        0   17    0    1.14659E+02     2.136     2.034     0.002     0.000    11.636     1.903    14.590    13.905     0.105     0.037     0.015     1.186     0.000     0.000    98.836   300.015     0.000     0.000     0.000     0.000     0.000     0.000    98.833   -13.560    -2.850   -24.270   -14.930     8.550     0.000     0.000     0.000     0.000     0.000     0.000     0.000     0.000     0.000     0.000     0.001     0.000     0.000     0.000     0.000     0.000     0.000     0.000     0.000     0.000     0.000     0.000     0.000     0.000     0.000     0.000     0.000     0.024     0.000     0.000     0.000     0.000     0.000     0.000     0.000     0.000     0.000     0.000 .00000E+00 .00000E+00 0.000E+00 0.000E+00
PAST   75        0   17    0    1.13452E+02     2.136     2.034     0.002     0.000    11.636     1.903    14.590    13.905     0.105     0.037     0.015     1.186     0.000     0.000    98.836   300.015     0.000     0.000     0.000     0.000     0.000     0.000    98.833   -13.560    -2.850   -24.270   -14.930     8.550     0.000     0.000     0.000     0.000     0.000     0.000     0.000     0.000     0.000     0.000     0.001     0.000     0.000     0.000     0.000     0.000     0.000     0.000     0.000     0.000     0.000     0.000     0.000     0.000     0.000     0.000     0.000     0.024     0.000     0.000     0.000     0.000     0.000     0.000     0.000     0.000     0.000     0.000 .00000E+00 .00000E+00 0.000E+00 0.000E+00
PAST   76        0   17    0    1.12077E+02     2.136     2.034     0.002     0.000    11.636     1.903    14.590    13.905     0.105     0.037     0.015     1.186     0.000     0.000    98.836   300.015     0.000     0.000     0.000     0.000     0.000     0.000    98.833   -13.560    -2.850   -24.270   -14.930     8.550     0.000     0.000     0.000     0.000     0.000     0.000     0.000     0.000     0.000     0.000     0.001     0.000     0.000     0.000     0.000     0.000     0.000     0.000     0.000     0.000     0.000     0.000     0.000     0.000     0.000     0.000     0.000     0.024     0.000     0.000     0.000     0.000     0.000     0.000     0.000     0.000     0.000     0.000 .00000E+00 .00000E+00 0.000E+00 0.000E+00
PAST   77        0   17    0    1.39819E+01     2.136     2.034     0.002     0.000    11.636     3.745    16.920    15.578     0.105     0.037     0.015     1.186     0.000     0.000    98.836   300.015     0.000     0.000     0.000     0.000     0.000     0.000    98.833   -13.560    -2.850   -24.270   -18.018     8.550     0.000     0.000     0.000     0.000     0.000     0.000     0.000     0.000     0.000     0.000     0.001     0.000     0.000     0.000     0.000     0.000     0.000     0.000     0.000     0.000     0.000     0.000     0.000     0.000     0.000     0.000     0.000     0.022     0.000     0.000     0.000     0.000     0.000     0.000     0.000     0.000     0.000     0.000 .00000E+00 .00000E+00 0.000E+00 0.000E+00
PAST   78        0   17    0    1.13479E+02     2.136     2.034     0.002     0.000    11.636     3.745    16.920    15.578     0.105     0.037     0.015     1.186     0.000     0.000    98.836   300.015     0.000     0.000     0.000     0.000     0.000     0.000    98.833   -13.560    -2.850   -24.270   -18.018     8.550     0.000     0.000     0.000     0.000     0.000     0.000     0.000     0.000     0.000     0.000     0.001     0.000     0.000     0.000     0.000     0.000     0.000     0.000     0.000     0.000     0.000     0.000     0.000     0.000     0.000     0.000     0.000     0.022     0.000     0.000     0.000     0.000     0.000     0.000     0.000     0.000     0.000     0.000 .00000E+00 .00000E+00 0.000E+00 0.000E+00
SWRN   79        0   17    0    1.52633E+02     2.136     2.034     0.002     0.000    11.636     1.903    14.590    13.905     0.105     0.037     0.015     1.186     0.000     0.000    98.836   300.015     0.000     0.000     0.000     0.000     0.000     0.000    98.155   -13.560    -2.850   -24.270   -14.930     8.550     0.000     0.000     0.000     0.000     0.000     0.000     0.000     0.000     0.000     0.000     0.001     0.000     0.000     0.000     0.000     0.000     0.000     0.000     0.000     0.000     0.000     0.000     0.000     0.000     0.000     0.000     0.000     0.024     0.000     0.000     0.000     0.000     0.000     0.000     0.000     0.000     0.000     0.000 .00000E+00 .00000E+00 0.000E+00 0.000E+00
SWRN   80        0   17    0    1.43177E+02     2.136     2.034     0.002     0.000    11.636     1.903    14.590    13.905     0.105     0.037     0.015     1.186     0.000     0.000    98.836   300.015     0.000     0.000     0.000     0.000     0.000     0.000    98.155   -13.560    -2.850   -24.270   -14.930     8.550     0.000     0.000     0.000     0.000     0.000     0.000     0.000     0.000     0.000     0.000     0.001     0.000     0.000     0.000     0.000     0.000     0.000     0.000     0.000     0.000     0.000     0.000     0.000     0.000     0.000     0.000     0.000     0.024     0.000     0.000     0.000     0.000     0.000     0.000     0.000     0.000     0.000     0.000 .00000E+00 .00000E+00 0.000E+00 0.000E+00
SWRN   81        0   17    0    1.59559E+02     2.136     2.034     0.002     0.000    11.636     1.903    14.590    13.905     0.105     0.037     0.015     1.186     0.000     0.000    98.836   300.015     0.000     0.000     0.000     0.000     0.000     0.000    98.155   -13.560    -2.850   -24.270   -14.930     8.550     0.000     0.000     0.000     0.000     0.000     0.000     0.000     0.000     0.000     0.000     0.001     0.000     0.000     0.000     0.000     0.000     0.000     0.000     0.000     0.000     0.000     0.000     0.000     0.000     0.000     0.000     0.000     0.024     0.000     0.000     0.000     0.000     0.000     0.000     0.000     0.000     0.000     0.000 .00000E+00 .00000E+00 0.000E+00 0.000E+00
PAST   82        0   18    0    1.97661E+01     2.149     2.023     0.002     0.000    12.026     1.960    14.554    13.849     0.128     0.046     0.018     1.226     0.000     0.000    98.801   300.018     0.000     0.000     0.000     0.000     0.000     0.000    98.833   -12.976    -2.256   -23.696   -14.589     8.550     0.000     0.000     0.000     0.000     0.000     0.000     0.000     0.000     0.000     0.000     0.001     0.000     0.000     0.000     0.000     0.000     0.000     0.000     0.000     0.000     0.000     0.000     0.000     0.000     0.000     0.000     0.000     0.029     0.000     0.000     0.000     0.000     0.000     0.000     0.000     0.000     0.000     0.000 .00000E+00 .00000E+00 0.000E+00 0.000E+00
PAST   83        0   18    0    1.94454E+01     2.149     2.023     0.002     0.000    12.026     1.960    14.554    13.849     0.128     0.046     0.018     1.226     0.000     0.000    98.801   300.018     0.000     0.000     0.000     0.000     0.000     0.000    98.833   -12.976    -2.256   -23.696   -14.589     8.550     0.000     0.000     0.000     0.000     0.000     0.000     0.000     0.000     0.000     0.000     0.001     0.000     0.000     0.000     0.000     0.000     0.000     0.000     0.000     0.000     0.000     0.000     0.000     0.000     0.000     0.000     0.000     0.029     0.000     0.000     0.000     0.000     0.000     0.000     0.000     0.000     0.000     0.000 .00000E+00 .00000E+00 0.000E+00 0.000E+00
PAST   84        0   18    0    1.12248E+02     2.149     2.023     0.002     0.000    12.026     1.960    14.554    13.849     0.128     0.046     0.018     1.226     0.000     0.000    98.801   300.018     0.000     0.000     0.000     0.000     0.000     0.000    98.833   -12.976    -2.256   -23.696   -14.589     8.550     0.000     0.000     0.000     0.000     0.000     0.000     0.000     0.000     0.000     0.000     0.001     0.000     0.000     0.000     0.000     0.000     0.000     0.000     0.000     0.000     0.000     0.000     0.000     0.000     0.000     0.000     0.000     0.029     0.000     0.000     0.000     0.000     0.000     0.000     0.000     0.000     0.000     0.000 .00000E+00 .00000E+00 0.000E+00 0.000E+00
PAST   85        0   18    0    1.10770E+02     2.149     2.023     0.002     0.000    12.026     1.960    14.554    13.849     0.128     0.046     0.018     1.226     0.000     0.000    98.801   300.018     0.000     0.000     0.000     0.000     0.000     0.000    98.833   -12.976    -2.256   -23.696   -14.589     8.550     0.000     0.000     0.000     0.000     0.000     0.000     0.000     0.000     0.000     0.000     0.001     0.000     0.000     0.000     0.000     0.000     0.000     0.000     0.000     0.000     0.000     0.000     0.000     0.000     0.000     0.000     0.000     0.029     0.000     0.000     0.000     0.000     0.000     0.000     0.000     0.000     0.000     0.000 .00000E+00 .00000E+00 0.000E+00 0.000E+00
PAST   86        0   18    0    1.54756E+01     2.149     2.023     0.002     0.000    12.026     2.009    18.049    17.330     0.128     0.046     0.018     1.226     0.000     0.000    98.801   300.018     0.000     0.000     0.000     0.000     0.000     0.000    98.833   -12.976    -2.256   -23.696   -13.349     8.550     0.000     0.000     0.000     0.000     0.000     0.000     0.000     0.000     0.000     0.000     0.001     0.000     0.000     0.000     0.000     0.000     0.000     0.000     0.000     0.000     0.000     0.000     0.000     0.000     0.000     0.000     0.000     0.020     0.000     0.000     0.000     0.000     0.000     0.000     0.000     0.000     0.000     0.000 .00000E+00 .00000E+00 0.000E+00 0.000E+00
PAST   87        0   18    0    1.45784E+01     2.149     2.023     0.002     0.000    12.026     2.009    18.049    17.330     0.128     0.046     0.018     1.226     0.000     0.000    98.801   300.018     0.000     0.000     0.000     0.000     0.000     0.000    98.833   -12.976    -2.256   -23.696   -13.349     8.550     0.000     0.000     0.000     0.000     0.000     0.000     0.000     0.000     0.000     0.000     0.001     0.000     0.000     0.000     0.000     0.000     0.000     0.000     0.000     0.000     0.000     0.000     0.000     0.000     0.000     0.000     0.000     0.020     0.000     0.000     0.000     0.000     0.000     0.000     0.000     0.000     0.000     0.000 .00000E+00 .00000E+00 0.000E+00 0.000E+00
PAST   88        0   18    0    1.80876E+01     2.149     2.023     0.002     0.000    12.026     2.009    18.049    17.330     0.128     0.046     0.018     1.226     0.000     0.000    98.801   300.018     0.000     0.000     0.000     0.000     0.000     0.000    98.833   -12.976    -2.256   -23.696   -13.349     8.550     0.000     0.000     0.000     0.000     0.000     0.000     0.000     0.000     0.000     0.000     0.001     0.000     0.000     0.000     0.000     0.000     0.000     0.000     0.000     0.000     0.000     0.000     0.000     0.000     0.000     0.000     0.000     0.020     0.000     0.000     0.000     0.000     0.000     0.000     0.000     0.000     0.000     0.000 .00000E+00 .00000E+00 0.000E+00 0.000E+00
SWRN   89        0   18    0    1.32583E+02     2.149     2.023     0.002     0.000    12.026     1.960    14.554    13.849     0.128     0.046     0.018     1.226     0.000     0.000    98.801   300.018     0.000     0.000     0.000     0.000     0.000     0.000    98.153   -12.976    -2.256   -23.696   -14.589     8.550     0.000     0.000     0.000     0.000     0.000     0.000     0.000     0.000     0.000     0.000     0.001     0.000     0.000     0.000     0.000     0.000     0.000     0.000     0.000     0.000     0.000     0.000     0.000     0.000     0.000     0.000     0.000     0.029     0.000     0.000     0.000     0.000     0.000     0.000     0.000     0.000     0.000     0.000 .00000E+00 .00000E+00 0.000E+00 0.000E+00
SWRN   90        0   18    0    1.34542E+02     2.149     2.023     0.002     0.000    12.026     1.960    14.554    13.849     0.128     0.046     0.018     1.226     0.000     0.000    98.801   300.018     0.000     0.000     0.000     0.000     0.000     0.000    98.153   -12.976    -2.256   -23.696   -14.589     8.550     0.000     0.000     0.000     0.000     0.000     0.000     0.000     0.000     0.000     0.000     0.001     0.000     0.000     0.000     0.000     0.000     0.000     0.000     0.000     0.000     0.000     0.000     0.000     0.000     0.000     0.000     0.000     0.029     0.000     0.000     0.000     0.000     0.000     0.000     0.000     0.000     0.000     0.000 .00000E+00 .00000E+00 0.000E+00 0.000E+00
SWRN   91        0   18    0    1.35024E+02     2.149     2.023     0.002     0.000    12.026     1.960    14.554    13.849     0.128     0.046     0.018     1.226     0.000     0.000    98.801   300.018     0.000     0.000     0.000     0.000     0.000     0.000    98.153   -12.976    -2.256   -23.696   -14.589     8.550     0.000     0.000     0.000     0.000     0.000     0.000     0.000     0.000     0.000     0.000     0.001     0.000     0.000     0.000     0.000     0.000     0.000     0.000     0.000     0.000     0.000     0.000     0.000     0.000     0.000     0.000     0.000     0.029     0.000     0.000     0.000     0.000     0.000     0.000     0.000     0.000     0.000     0.000 .00000E+00 .00000E+00 0.000E+00 0.000E+00
PAST   92        0   19    0    1.10278E+02     2.197     2.012     0.004     0.000    14.954     2.386    14.290    13.423     0.189     0.067     0.027     1.525     0.000     0.000    98.516   300.027     0.000     0.000     0.000     0.000     0.000     0.000    98.833    -8.326     2.394   -19.047   -11.870     8.550     0.000     0.000     0.000     0.000     0.000     0.000     0.000     0.000     0.000     0.000     0.002     0.000     0.000     0.000     0.000     0.000     0.000     0.000     0.000     0.000     0.000     0.000     0.000     0.000     0.000     0.000     0.000     0.042     0.000     0.000     0.000     0.000     0.000     0.000     0.000     0.000     0.000     0.000 .00000E+00 .00000E+00 0.000E+00 0.000E+00
PAST   93        0   19    0    1.12225E+02     2.197     2.012     0.004     0.000    14.954     2.386    14.290    13.423     0.189     0.067     0.027     1.525     0.000     0.000    98.516   300.027     0.000     0.000     0.000     0.000     0.000     0.000    98.833    -8.326     2.394   -19.047   -11.870     8.550     0.000     0.000     0.000     0.000     0.000     0.000     0.000     0.000     0.000     0.000     0.002     0.000     0.000     0.000     0.000     0.000     0.000     0.000     0.000     0.000     0.000     0.000     0.000     0.000     0.000     0.000     0.000     0.042     0.000     0.000     0.000     0.000     0.000     0.000     0.000     0.000     0.000     0.000 .00000E+00 .00000E+00 0.000E+00 0.000E+00
PAST   94        0   19    0    1.11002E+02     2.197     2.012     0.004     0.000    14.954     2.386    14.290    13.423     0.189     0.067     0.027     1.525     0.000     0.000    98.516   300.027     0.000     0.000     0.000     0.000     0.000     0.000    98.833    -8.326     2.394   -19.047   -11.870     8.550     0.000     0.000     0.000     0.000     0.000     0.000     0.000     0.000     0.000     0.000     0.002     0.000     0.000     0.000     0.000     0.000     0.000     0.000     0.000     0.000     0.000     0.000     0.000     0.000     0.000     0.000     0.000     0.042     0.000     0.000     0.000     0.000     0.000     0.000     0.000     0.000     0.000     0.000 .00000E+00 .00000E+00 0.000E+00 0.000E+00
SWRN   95        0   19    0    1.34334E+02     2.197     2.012     0.004     0.000    14.954     2.386    14.290    13.423     0.189     0.067     0.027     1.525     0.000     0.000    98.516   300.027     0.000     0.000     0.000     0.000     0.000     0.000    98.139    -8.326     2.394   -19.047   -11.870     8.550     0.000     0.000     0.000     0.000     0.000     0.000     0.000     0.000     0.000     0.000     0.002     0.000     0.000     0.000     0.000     0.000     0.000     0.000     0.000     0.000     0.000     0.000     0.000     0.000     0.000     0.000     0.000     0.042     0.000     0.000     0.000     0.000     0.000     0.000     0.000     0.000     0.000     0.000 .00000E+00 .00000E+00 0.000E+00 0.000E+00
SWRN   96        0   19    0    1.45295E+02     2.197     2.012     0.004     0.000    14.954     2.386    14.290    13.423     0.189     0.067     0.027     1.525     0.000     0.000    98.516   300.027     0.000     0.000     0.000     0.000     0.000     0.000    98.139    -8.326     2.394   -19.047   -11.870     8.550     0.000     0.000     0.000     0.000     0.000     0.000     0.000     0.000     0.000     0.000     0.002     0.000     0.000     0.000     0.000     0.000     0.000     0.000     0.000     0.000     0.000     0.000     0.000     0.000     0.000     0.000     0.000     0.042     0.000     0.000     0.000     0.000     0.000     0.000     0.000     0.000     0.000     0.000 .00000E+00 .00000E+00 0.000E+00 0.000E+00
PAST   97        0   20    0    1.17045E+02     2.200     2.096     0.002     0.000    14.701     2.353    14.307    13.455     0.106     0.038     0.015     1.499     0.000     0.000    98.524   300.015     0.000     0.000     0.000     0.000     0.000     0.000    98.833    -8.715     1.994   -19.425   -12.094     8.550     0.000     0.000     0.000     0.000     0.000     0.000     0.000     0.000     0.000     0.000     0.001     0.000     0.000     0.000     0.000     0.000     0.000     0.000     0.000     0.000     0.000     0.000     0.000     0.000     0.000     0.000     0.000     0.024     0.000     0.000     0.000     0.000     0.000     0.000     0.000     0.000     0.000     0.000 .00000E+00 .00000E+00 0.000E+00 0.000E+00
PAST   98        0   20    0    1.13305E+02     2.200     2.096     0.002     0.000    14.701     2.353    14.307    13.455     0.106     0.038     0.015     1.499     0.000     0.000    98.524   300.015     0.000     0.000     0.000     0.000     0.000     0.000    98.833    -8.715     1.994   -19.425   -12.094     8.550     0.000     0.000     0.000     0.000     0.000     0.000     0.000     0.000     0.000     0.000     0.001     0.000     0.000     0.000     0.000     0.000     0.000     0.000     0.000     0.000     0.000     0.000     0.000     0.000     0.000     0.000     0.000     0.024     0.000     0.000     0.000     0.000     0.000     0.000     0.000     0.000     0.000     0.000 .00000E+00 .00000E+00 0.000E+00 0.000E+00
PAST   99        0   20    0    1.27249E+02     2.200     2.096     0.002     0.000    14.701     2.353    14.307    13.455     0.106     0.038     0.015     1.499     0.000     0.000    98.524   300.015     0.000     0.000     0.000     0.000     0.000     0.000    98.833    -8.715     1.994   -19.425   -12.094     8.550     0.000     0.000     0.000     0.000     0.000     0.000     0.000     0.000     0.000     0.000     0.001     0.000     0.000     0.000     0.000     0.000     0.000     0.000     0.000     0.000     0.000     0.000     0.000     0.000     0.000     0.000     0.000     0.024     0.000     0.000     0.000     0.000     0.000     0.000     0.000     0.000     0.000     0.000 .00000E+00 .00000E+00 0.000E+00 0.000E+00
PAST  100        0   20    0    1.24759E+02     2.200     2.096     0.002     0.000    14.701     2.409    17.798    16.929     0.106     0.038     0.015     1.499     0.000     0.000    98.524   300.015     0.000     0.000     0.000     0.000     0.000     0.000    98.833    -8.715     1.994   -19.425   -11.230     8.550     0.000     0.000     0.000     0.000     0.000     0.000     0.000     0.000     0.000     0.000     0.001     0.000     0.000     0.000     0.000     0.000     0.000     0.000     0.000     0.000     0.000     0.000     0.000     0.000     0.000     0.000     0.000     0.017     0.000     0.000     0.000     0.000     0.000     0.000     0.000     0.000     0.000     0.000 .00000E+00 .00000E+00 0.000E+00 0.000E+00
PAST  101        0   20    0    1.13933E+02     2.200     2.096     0.002     0.000    14.701     2.409    17.798    16.929     0.106     0.038     0.015     1.499     0.000     0.000    98.524   300.015     0.000     0.000     0.000     0.000     0.000     0.000    98.833    -8.715     1.994   -19.425   -11.230     8.550     0.000     0.000     0.000     0.000     0.000     0.000     0.000     0.000     0.000     0.000     0.001     0.000     0.000     0.000     0.000     0.000     0.000     0.000     0.000     0.000     0.000     0.000     0.000     0.000     0.000     0.000     0.000     0.017     0.000     0.000     0.000     0.000     0.000     0.000     0.000     0.000     0.000     0.000 .00000E+00 .00000E+00 0.000E+00 0.000E+00
SWRN  102        0   20    0    1.17630E+02     2.200     2.096     0.002     0.000    14.701     2.353    14.307    13.455     0.106     0.038     0.015     1.499     0.000     0.000    98.524   300.015     0.000     0.000     0.000     0.000     0.000     0.000    98.140    -8.715     1.994   -19.425   -12.094     8.550     0.000     0.000     0.000     0.000     0.000     0.000     0.000     0.000     0.000     0.000     0.001     0.000     0.000     0.000     0.000     0.000     0.000     0.000     0.000     0.000     0.000     0.000     0.000     0.000     0.000     0.000     0.000     0.024     0.000     0.000     0.000     0.000     0.000     0.000     0.000     0.000     0.000     0.000 .00000E+00 .00000E+00 0.000E+00 0.000E+00
SWRN  103        0   20    0    1.13374E+02     2.200     2.096     0.002     0.000    14.701     2.353    14.307    13.455     0.106     0.038     0.015     1.499     0.000     0.000    98.524   300.015     0.000     0.000     0.000     0.000     0.000     0.000    98.140    -8.715     1.994   -19.425   -12.094     8.550     0.000     0.000     0.000     0.000     0.000     0.000     0.000     0.000     0.000     0.000     0.001     0.000     0.000     0.000     0.000     0.000     0.000     0.000     0.000     0.000     0.000     0.000     0.000     0.000     0.000     0.000     0.000     0.024     0.000     0.000     0.000     0.000     0.000     0.000     0.000     0.000     0.000     0.000 .00000E+00 .00000E+00 0.000E+00 0.000E+00
SWRN  104        0   20    0    1.24122E+02     2.200     2.096     0.002     0.000    14.701     2.353    14.307    13.455     0.106     0.038     0.015     1.499     0.000     0.000    98.524   300.015     0.000     0.000     0.000     0.000     0.000     0.000    98.140    -8.715     1.994   -19.425   -12.094     8.550     0.000     0.000     0.000     0.000     0.000     0.000     0.000     0.000     0.000     0.000     0.001     0.000     0.000     0.000     0.000     0.000     0.000     0.000     0.000     0.000     0.000     0.000     0.000     0.000     0.000     0.000     0.000     0.024     0.000     0.000     0.000     0.000     0.000     0.000     0.000     0.000     0.000     0.000 .00000E+00 .00000E+00 0.000E+00 0.000E+00
SWRN  105        0   20    0    1.18237E+02     2.200     2.096     0.002     0.000    14.701     2.409    17.798    16.929     0.106     0.038     0.015     1.499     0.000     0.000    98.524   300.015     0.000     0.000     0.000     0.000     0.000     0.000    98.097    -8.715     1.994   -19.425   -11.230     8.550     0.000     0.000     0.000     0.000     0.000     0.000     0.000     0.000     0.000     0.000     0.001     0.000     0.000     0.000     0.000     0.000     0.000     0.000     0.000     0.000     0.000     0.000     0.000     0.000     0.000     0.000     0.000     0.017     0.000     0.000     0.000     0.000     0.000     0.000     0.000     0.000     0.000     0.000 .00000E+00 .00000E+00 0.000E+00 0.000E+00
[...]
SWRN  221        0   37    0 1960.41750E+00   272.500    28.400   117.852     0.000   567.988    72.235    22.226    45.748   313.927   313.774   125.510    57.908     0.000     0.000   230.357   425.510     0.000     0.000     0.000     0.000     0.000     0.000    92.712    -2.172     6.333   -10.678    -5.140    14.056     0.000     0.000     0.000     0.000     0.000     0.000     0.000     0.000     0.000     0.000     3.620     0.000     0.000     1.662    -0.052     0.000     0.285     0.190     0.050     0.000     0.013     0.001     0.000     0.000     0.000     0.000     0.000    10.300     0.000     0.000     0.000   110.835   199.872     0.000     0.000     0.000     0.004     0.000 .00000E+00 .00000E+00 0.000E+00 0.000E+00
SWRN  222        0   37    0 1960.30705E+00   272.500    28.400   117.852     0.000   567.988   124.704    12.727    21.694   276.395   276.289   110.515    57.908     0.000     0.000   207.865   410.516     0.000     0.000     0.000     0.000     0.000     0.000    84.736    -2.172     6.333   -10.678    -4.851    14.056     0.000     0.000     0.000     0.000     0.000     0.000     0.000     0.000     0.000     0.000     3.620     0.000     0.000     0.240    -0.005     0.000     0.041     0.026     0.007     0.000     0.033     0.002     0.000     0.000     0.000     0.000     0.000    18.872     0.000     0.000     0.000    85.720   199.872     0.000     0.000     0.000     0.016     0.000 .00000E+00 .00000E+00 0.000E+00 0.000E+00
PAST  223        0   38    0 1960.11741E+03   281.371     5.174     0.113     0.000  1175.438    26.097    15.102    30.908   240.063   239.719    95.888   119.839     0.000     0.000   123.993   395.888     0.000     0.000     0.000     0.000     0.000     0.000    91.622    11.521    20.027     3.015     4.583    14.056     0.000     0.000     0.000     0.000     0.000     0.000     0.000     0.000     0.000     0.000     2.763     0.000     0.000     4.014    -0.213     0.000     0.688     0.376     0.124     0.000     0.985     0.142     0.000     0.000     0.000     0.000     0.000    10.323     0.000     0.000     0.000   267.506   130.307     0.000     1.440     0.002     0.027     0.000 .00000E+00 .00000E+00 0.000E+00 0.000E+00
SWRN  224        0   38    0 1960.15483E+02   281.371     5.174     0.113     0.000  1175.438    25.367    15.226    31.639   240.062   239.718    95.887   119.839     0.000     0.000   123.992   395.887     0.000     0.000     0.000     0.000     0.000     0.000    85.143    11.521    20.027     3.015     4.585    14.056     0.000     0.000     0.000     0.000     0.000     0.000     0.000     0.000     0.000     0.000     2.763     0.000     0.001     4.027    -0.214     0.000     0.691     0.464     0.130     0.000     0.012     0.002     0.000     0.000     0.000     0.000     0.000    10.323     0.000     0.000     0.000   132.524    47.028     0.000     1.000     0.002     0.016     0.002 .00000E+00 .00000E+00 0.000E+00 0.000E+00
SWRN  225        0   38    0 1960.15799E+02   281.371     5.174     0.113     0.000  1175.438    25.367    15.226    31.639   240.062   239.718    95.887   119.839     0.000     0.000   123.992   395.887     0.000     0.000     0.000     0.000     0.000     0.000    85.143    11.521    20.027     3.015     4.585    14.056     0.000     0.000     0.000     0.000     0.000     0.000     0.000     0.000     0.000     0.000     2.763     0.000     0.001     4.027    -0.214     0.000     0.691     0.464     0.130     0.000     0.012     0.002     0.000     0.000     0.000     0.000     0.000    10.323     0.000     0.000     0.000   132.524    47.028     0.000     1.000     0.002     0.016     0.002 .00000E+00 .00000E+00 0.000E+00 0.000E+00
SWRN  226        0   38    0 1960.23543E+02   281.371     5.174     0.113     0.000  1175.438    25.367    15.226    31.639   240.062   239.718    95.887   119.839     0.000     0.000   123.992   395.887     0.000     0.000     0.000     0.000     0.000     0.000    85.143    11.521    20.027     3.015     4.585    14.056     0.000     0.000     0.000     0.000     0.000     0.000     0.000     0.000     0.000     0.000     2.763     0.000     0.001     4.027    -0.214     0.000     0.691     0.464     0.130     0.000     0.012     0.002     0.000     0.000     0.000     0.000     0.000    10.323     0.000     0.000     0.000   132.524    47.028     0.000     1.000     0.002     0.016     0.002 .00000E+00 .00000E+00 0.000E+00 0.000E+00
SWRN  227        0   38    0 1960.20616E+02   281.371     5.174     0.113     0.000  1175.438    25.367    15.226    31.639   240.062   239.718    95.887   119.839     0.000     0.000   123.992   395.887     0.000     0.000     0.000     0.000     0.000     0.000    85.143    11.521    20.027     3.015     4.585    14.056     0.000     0.000     0.000     0.000     0.000     0.000     0.000     0.000     0.000     0.000     2.763     0.000     0.001     4.027    -0.214     0.000     0.691     0.464     0.130     0.000     0.012     0.002     0.000     0.000     0.000     0.000     0.000    10.323     0.000     0.000     0.000   132.524    47.028     0.000     1.000     0.002     0.016     0.002 .00000E+00 .00000E+00 0.000E+00 0.000E+00
PAST  228        0   39    0 1960.85675E+02   279.565     6.553     0.151     0.000  1078.721    29.385     4.520     0.000   269.190   268.242   107.297   109.978     0.000     0.000   150.967   407.297     0.000     0.000     0.000     0.000     0.000     0.000    96.967     8.733    17.239     0.227     1.650    14.056     0.000     0.000     0.000     0.000     0.000     0.000     0.000     0.000     0.000     0.000     2.732     0.000     0.000     1.192    -0.064     0.000     0.204    -2.488    -0.104     0.000    34.394     4.266     0.000     0.000     0.000     0.000     0.000     4.930     0.000     0.000     0.000   248.128   149.723     0.000     1.154     0.068     0.847     0.000 .00000E+00 .00000E+00 0.000E+00 0.000E+00
PAST  229        0   39    0 1960.21228E+03   279.565     6.553     0.151     0.000  1078.721    26.627    15.386    31.467   237.134   236.792    94.717   109.978     0.000     0.000   132.097   394.717     0.000     0.000     0.000     0.000     0.000     0.000    92.044     8.733    17.239     0.227     2.745    14.056     0.000     0.000     0.000     0.000     0.000     0.000     0.000     0.000     0.000     0.000     2.732     0.000     0.000     3.599    -0.176     0.000     0.617     0.394     0.119     0.000     0.180     0.033     0.000     0.000     0.000     0.000     0.000    10.318     0.000     0.000     0.000   253.266   149.723     0.000    24.737     0.000     0.027     0.000 .00000E+00 .00000E+00 0.000E+00 0.000E+00
SWRN  230        0   39    0 1960.37402E+02   279.565     6.553     0.151     0.000  1078.721    25.987    15.493    32.106   237.134   236.793    94.717   109.978     0.000     0.000   132.097   394.717     0.000     0.000     0.000     0.000     0.000     0.000    86.009     8.733    17.239     0.227     2.744    14.056     0.000     0.000     0.000     0.000     0.000     0.000     0.000     0.000     0.000     0.000     2.732     0.000     0.001     3.600    -0.176     0.000     0.617     0.415     0.120     0.000     0.013     0.003     0.000     0.000     0.000     0.000     0.000    10.318     0.000     0.000     0.000   154.163    51.262     0.000    13.037     0.002     0.010     0.002 .00000E+00 .00000E+00 0.000E+00 0.000E+00
SWRN  231        0   39    0 1960.74148E+02   279.565     6.553     0.151     0.000  1078.721    25.987    15.493    32.106   237.134   236.792    94.717   109.978     0.000     0.000   132.097   394.717     0.000     0.000     0.000     0.000     0.000     0.000    86.009     8.733    17.239     0.227     2.744    14.056     0.000     0.000     0.000     0.000     0.000     0.000     0.000     0.000     0.000     0.000     2.732     0.000     0.001     3.600    -0.176     0.000     0.617     0.415     0.120     0.000     0.013     0.003     0.000     0.000     0.000     0.000     0.000    10.318     0.000     0.000     0.000   154.163    51.262     0.000    13.037     0.002     0.010     0.002 .00000E+00 .00000E+00 0.000E+00 0.000E+00
SWRN  232        0   39    0 1960.53847E+02   279.565     6.553     0.151     0.000  1078.721    23.979    10.195    10.178   264.600   263.663   105.465   109.978     0.000     0.000   148.220   405.465     0.000     0.000     0.000     0.000     0.000     0.000    85.123     8.733    17.239     0.227     1.024    14.056     0.000     0.000     0.000     0.000     0.000     0.000     0.000     0.000     0.000     0.000     2.732     0.000     0.097     4.529    -0.243     0.007     0.777     0.403     0.121     0.000     2.489     0.189     0.000     0.000     0.000     0.000     0.000    13.427     0.000     0.000     0.000   141.823    51.262     0.000     0.000     0.267     0.407     0.186 .00000E+00 .00000E+00 0.000E+00 0.000E+00
SWRN  233        0   39    0 1960.37387E+02   279.565     6.553     0.151     0.000  1078.721    23.979    10.195    10.178   264.600   263.663   105.465   109.978     0.000     0.000   148.220   405.465     0.000     0.000     0.000     0.000     0.000     0.000    85.123     8.733    17.239     0.227     1.024    14.056     0.000     0.000     0.000     0.000     0.000     0.000     0.000     0.000     0.000     0.000     2.732     0.000     0.097     4.529    -0.243     0.007     0.777     0.403     0.121     0.000     2.489     0.189     0.000     0.000     0.000     0.000     0.000    13.427     0.000     0.000     0.000   141.823    51.262     0.000     0.000     0.267     0.407     0.186 .00000E+00 .00000E+00 0.000E+00 0.000E+00
PAST  234        0   40    0 1960.20431E+03   280.659     6.203     0.153     0.000  1114.033    28.741     4.325     0.000   270.930   269.966   107.987   113.578     0.000     0.000   148.401   407.987     0.000     0.000     0.000     0.000     0.000     0.000    96.903     9.822    18.328     1.316     2.204    14.056     0.000     0.000     0.000     0.000     0.000     0.000     0.000     0.000     0.000     0.000     2.746     0.000     0.000     1.207    -0.065     0.000     0.207    -2.063    -0.092     0.000    28.385     3.569     0.000     0.000     0.000     0.000     0.000     4.891     0.000     0.000     0.000   254.840   141.797     0.000     2.298     0.065     0.790     0.000 .00000E+00 .00000E+00 0.000E+00 0.000E+00
PAST  235        0   40    0 1960.33141E+03   280.659     6.203     0.153     0.000  1114.033    26.645    15.358    31.433   238.246   237.906    95.162   113.578     0.000     0.000   129.165   395.163     0.000     0.000     0.000     0.000     0.000     0.000    91.894     9.822    18.328     1.316     3.457    14.056     0.000     0.000     0.000     0.000     0.000     0.000     0.000     0.000     0.000     0.000     2.746     0.000     0.000     3.766    -0.191     0.000     0.646     0.385     0.120     0.000     0.421     0.069     0.000     0.000     0.000     0.000     0.000    10.324     0.000     0.000     0.000   260.684   141.797     0.000     0.000     0.001     0.027     0.000 .00000E+00 .00000E+00 0.000E+00 0.000E+00
SWRN  236        0   40    0 1960.78066E+02   280.659     6.203     0.153     0.000  1114.033    25.978    15.471    32.100   238.246   237.906    95.162   113.578     0.000     0.000   129.165   395.162     0.000     0.000     0.000     0.000     0.000     0.000    85.696     9.822    18.328     1.316     3.458    14.056     0.000     0.000     0.000     0.000     0.000     0.000     0.000     0.000     0.000     0.000     2.746     0.000     0.002     3.766    -0.191     0.000     0.646     0.435     0.124     0.000     0.008     0.001     0.000     0.000     0.000     0.000     0.000    10.324     0.000     0.000     0.000   142.578    49.449     0.000     0.000     0.000     0.015     0.000 .00000E+00 .00000E+00 0.000E+00 0.000E+00
SWRN  237        0   40    0 1960.79429E+02   280.659     6.203     0.153     0.000  1114.033    25.978    15.471    32.100   238.246   237.906    95.162   113.578     0.000     0.000   129.165   395.162     0.000     0.000     0.000     0.000     0.000     0.000    85.696     9.822    18.328     1.316     3.458    14.056     0.000     0.000     0.000     0.000     0.000     0.000     0.000     0.000     0.000     0.000     2.746     0.000     0.002     3.766    -0.191     0.000     0.646     0.435     0.124     0.000     0.008     0.001     0.000     0.000     0.000     0.000     0.000    10.324     0.000     0.000     0.000   142.578    49.449     0.000     0.000     0.000     0.015     0.000 .00000E+00 .00000E+00 0.000E+00 0.000E+00
SWRN  238        0   40    0 1960.47060E+02   280.659     6.203     0.153     0.000  1114.033    23.533     9.826     9.679   266.641   265.686   106.274   113.578     0.000     0.000   145.833   406.275     0.000     0.000     0.000     0.000     0.000     0.000    84.506     9.822    18.328     1.316     1.495    14.056     0.000     0.000     0.000     0.000     0.000     0.000     0.000     0.000     0.000     0.000     2.746     0.000     0.114     4.749    -0.266     0.009     0.814     0.436     0.132     0.000     2.260     0.181     0.000     0.000     0.000     0.000     0.000    13.397     0.000     0.000     0.000   129.604    49.449     0.000     0.031     0.255     0.408     0.178 .00000E+00 .00000E+00 0.000E+00 0.000E+00
SWRN  239        0   40    0 1960.44607E+02   280.659     6.203     0.153     0.000  1114.033    23.533     9.826     9.679   266.641   265.686   106.274   113.578     0.000     0.000   145.833   406.275     0.000     0.000     0.000     0.000     0.000     0.000    84.506     9.822    18.328     1.316     1.495    14.056     0.000     0.000     0.000     0.000     0.000     0.000     0.000     0.000     0.000     0.000     2.746     0.000     0.114     4.749    -0.266     0.009     0.814     0.436     0.132     0.000     2.260     0.181     0.000     0.000     0.000     0.000     0.000    13.397     0.000     0.000     0.000   129.604    49.449     0.000     0.031     0.255     0.408     0.178 .00000E+00 .00000E+00 0.000E+00 0.000E+00
PAST  240        0   41    0 1960.35762E+02   282.444     4.579     0.098     0.000  1209.086    25.858    15.055    30.902   241.397   241.054    96.422   123.269     0.000     0.000   121.363   396.422     0.000     0.000     0.000     0.000     0.000     0.000    91.463    12.447    20.953     3.941     5.196    14.056     0.000     0.000     0.000     0.000     0.000     0.000     0.000     0.000     0.000     0.000     2.780     0.000     0.000     4.197    -0.229     0.000     0.720     0.356     0.125     0.000     1.238     0.191     0.000     0.000     0.000     0.000     0.000    10.329     0.000     0.000     0.000   271.397   125.913     0.000     0.888     0.002     0.027     0.000 .00000E+00 .00000E+00 0.000E+00 0.000E+00
PAST  241        0   41    0 1960.72734E+02   282.444     4.579     0.098     0.000  1209.086    29.781     5.101     0.000   271.907   270.874   108.350   123.269     0.000     0.000   139.255   408.350     0.000     0.000     0.000     0.000     0.000     0.000    89.673    12.447    20.953     3.941     1.566    14.056     0.000     0.000     0.000     0.000     0.000     0.000     0.000     0.000     0.000     0.000     2.780     0.000     0.000     4.742    -0.267     0.000     0.813    -1.544    -0.061     0.000    25.078     3.330     0.000     0.000     0.000     0.000     0.000     8.568     0.000     0.000     0.000   268.807   125.913     4.575     6.000     0.082     1.047     0.000 .00000E+00 .00000E+00 0.000E+00 0.000E+00
SWRN  242        0   41    0 1960.12100E+02   282.444     4.579     0.098     0.000  1209.086    25.100    15.184    31.660   241.397   241.054    96.421   123.269     0.000     0.000   121.363   396.422     0.000     0.000     0.000     0.000     0.000     0.000    84.850    12.447    20.953     3.941     5.198    14.056     0.000     0.000     0.000     0.000     0.000     0.000     0.000     0.000     0.000     0.000     2.780     0.000     0.004     4.198    -0.229     0.000     0.720     0.483     0.133     0.000     0.015     0.001     0.000     0.000     0.000     0.000     0.000    10.329     0.000     0.000     0.000   130.293    47.140     0.000     0.000     0.001     0.019     0.001 .00000E+00 .00000E+00 0.000E+00 0.000E+00
SWRN  243        0   41    0 1960.17846E+02   282.444     4.579     0.098     0.000  1209.086    25.100    15.184    31.660   241.397   241.054    96.421   123.269     0.000     0.000   121.363   396.422     0.000     0.000     0.000     0.000     0.000     0.000    84.850    12.447    20.953     3.941     5.198    14.056     0.000     0.000     0.000     0.000     0.000     0.000     0.000     0.000     0.000     0.000     2.780     0.000     0.004     4.198    -0.229     0.000     0.720     0.483     0.133     0.000     0.015     0.001     0.000     0.000     0.000     0.000     0.000    10.329     0.000     0.000     0.000   130.293    47.140     0.000     0.000     0.001     0.019     0.001 .00000E+00 .00000E+00 0.000E+00 0.000E+00
SWRN  244        0   41    0 1960.18071E+02   282.444     4.579     0.098     0.000  1209.086    25.100    15.184    31.660   241.397   241.054    96.421   123.269     0.000     0.000   121.363   396.422     0.000     0.000     0.000     0.000     0.000     0.000    84.850    12.447    20.953     3.941     5.198    14.056     0.000     0.000     0.000     0.000     0.000     0.000     0.000     0.000     0.000     0.000     2.780     0.000     0.004     4.198    -0.229     0.000     0.720     0.483     0.133     0.000     0.015     0.001     0.000     0.000     0.000     0.000     0.000    10.329     0.000     0.000     0.000   130.293    47.140     0.000     0.000     0.001     0.019     0.001 .00000E+00 .00000E+00 0.000E+00 0.000E+00
SWRN  245        0   41    0 1960.32072E+02   282.444     4.579     0.098     0.000  1209.086    21.627     9.436     9.659   270.402   269.376   107.750   123.269     0.000     0.000   138.356   407.750     0.000     0.000     0.000     0.000     0.000     0.000    83.593    12.447    20.953     3.941     2.724    14.056     0.000     0.000     0.000     0.000     0.000     0.000     0.000     0.000     0.000     0.000     2.780     0.000     0.118     5.009    -0.293     0.010     0.859     0.481     0.141     0.000     1.846     0.156     0.000     0.000     0.000     0.000     0.000    13.408     0.000     0.000     0.000   117.394    47.140     0.000     0.029     0.220     0.405     0.153 .00000E+00 .00000E+00 0.000E+00 0.000E+00
SWRN  246        0   41    0 1960.43972E+02   282.444     4.579     0.098     0.000  1209.086    21.627     9.436     9.659   270.402   269.376   107.750   123.269     0.000     0.000   138.356   407.750     0.000     0.000     0.000     0.000     0.000     0.000    83.593    12.447    20.953     3.941     2.724    14.056     0.000     0.000     0.000     0.000     0.000     0.000     0.000     0.000     0.000     0.000     2.780     0.000     0.118     5.009    -0.293     0.010     0.859     0.481     0.141     0.000     1.846     0.156     0.000     0.000     0.000     0.000     0.000    13.408     0.000     0.000     0.000   117.394    47.140     0.000     0.029     0.220     0.405     0.153 .00000E+00 .00000E+00 0.000E+00 0.000E+00
