1
    SWAT  May '02 VERSION2003                                                                            0/ 0/   0      0: 0: 0

    General Input/Output section (file.cio): ArcSWAT 2.3.4                          
    2013/5/29 0:00:00ARCGIS-SWAT interface AV                                       
                                                                                    
         Number of years in run:    5
         Area of watershed:    11050.589 km2
1
    SWAT  May '02 VERSION2003                                                       

    General Input/Output section (file.cio): ArcSWAT 2.3.4                          
    2013/5/29 0:00:00ARCGIS-SWAT interface AV                                       
                                                                                    
Annual Summary for Watershed in year    1 of simulation

 UNIT                              PERCO   TILE                       WATER    SED    NO3    NO3    NO3    NO3        N       P       P
 TIME   PREC   SURQ   LATQ    GWQ   LATE      Q    SW     ET     PET  YIELD  YIELD   SURQ   LATQ   PERC   CROP  ORGANIC SOLUBLE ORGANIC
        (mm)   (mm)   (mm)   (mm)   (mm)   (mm)   (mm)   (mm)   (mm)   (mm) (t/ha)  -----------------(kg nutrient/ha)------------------
    1   1.85   0.00   0.00   0.00   0.44   0.00  10.76   5.37  77.44   0.00   0.00   0.00   0.00   0.10   0.14     0.00    0.00    0.00
    2   4.34   0.00   0.00   0.00   2.16   0.00  10.13   2.57  78.91   0.00   0.00   0.00   0.00   0.45   0.01     0.00    0.00    0.00
    3   3.85   0.00   0.00   0.00   3.50   0.00   5.93   6.06 167.06   0.00   0.00   0.00   0.00   0.67   0.04     0.00    0.00    0.00
    4   8.66   0.00   0.00   0.00   8.06   0.00   4.42   2.09 197.36   0.00   0.00   0.00   0.00   1.26   0.03     0.00    0.00    0.00
    5  35.79   0.00   0.00   0.00  35.21   0.00   3.98   1.07 254.78   0.00   0.00   0.00   0.00   2.85   0.44     0.00    0.00    0.00
    6  23.17   0.00   0.00   0.00  23.10   0.00   3.54   0.62 230.43   0.00   0.00   0.00   0.00   0.86   1.00     0.00    0.00    0.00
    7  72.80   0.00   0.00   0.00  67.70   0.00   8.16   0.49 226.01   0.00   0.00   0.00   0.00   1.67   0.64     0.00    0.00    0.00
    8  23.52   0.00   0.00   0.00  21.06   0.00  10.38   0.23 216.74   0.00   0.00   0.00   0.00   0.55   0.16     0.00    0.00    0.00
    9  27.88   0.00   0.00   0.00  17.40   0.00  20.50   0.18 172.21   0.00   0.00   0.00   0.00   0.43   0.01     0.00    0.00    0.00
   10   4.13   0.00   0.00   0.00   0.57   0.00  20.78   1.85 116.08   0.00   0.00   0.00   0.00   0.00   0.01     0.00    0.00    0.00
   11   1.26   0.00   0.00   0.00   0.87   0.00  20.56   0.77  68.85   0.00   0.00   0.00   0.00   0.07   0.00     0.00    0.00    0.00
   12   0.32   0.00   0.00   0.00   0.21   0.00  20.01   0.73  67.43   0.00   0.00   0.00   0.00   0.02   0.10     0.00    0.00    0.00

 1960 207.57   0.00   0.00   0.00 180.27   0.00  20.01  22.041873.31   0.00   0.00   0.00   0.00   8.92   2.58     0.00    0.00    0.00
1
    SWAT  May '02 VERSION2003                                                       

    General Input/Output section (file.cio): ArcSWAT 2.3.4                          
    2013/5/29 0:00:00ARCGIS-SWAT interface AV                                       
                                                                                    
Annual Summary for Watershed in year    2 of simulation

 UNIT                              PERCO   TILE                       WATER    SED    NO3    NO3    NO3    NO3        N       P       P
 TIME   PREC   SURQ   LATQ    GWQ   LATE      Q    SW     ET     PET  YIELD  YIELD   SURQ   LATQ   PERC   CROP  ORGANIC SOLUBLE ORGANIC
        (mm)   (mm)   (mm)   (mm)   (mm)   (mm)   (mm)   (mm)   (mm)   (mm) (t/ha)  -----------------(kg nutrient/ha)------------------
