1
    SWAT  May '02 VERSION2003                                                                            0/ 0/   0      0: 0: 0

    General Input/Output section (file.cio): ArcSWAT 2.3.4                          
    2013/5/29 0:00:00ARCGIS-SWAT interface AV                                       
                                                                                    


       RCH      GIS   MON     AREAkm2  FLOW_INcms FLOW_OUTcms     EVAPcms    TLOSScms  SED_INtons SED_OUTtonsSEDCONCmg/kg   ORGN_INkg  ORGN_OUTkg   ORGP_INkg  ORGP_OUTkg    NO3_INkg   NO3_OUTkg    NH4_INkg   NH4_OUTkg    NO2_INkg   NO2_OUTkg   MINP_INkg  MINP_OUTkg   CHLA_INkg  CHLA_OUTkg   CBOD_INkg  CBOD_OUTkg  DISOX_INkg DISOX_OUTkg SOLPST_INmgSOLPST_OUTmg SORPST_INmgSORPST_OUTmg  REACTPSTmg    VOLPSTmg  SETTLPSTmgRESUSP_PSTmgDIFFUSEPSTmgREACBEDPSTmg   BURYPSTmg   BED_PSTmg BACTP_OUTctBACTLP_OUTct  CMETAL#1kg  CMETAL#2kg  CMETAL#3kg
REACH    1        0     1  0.1105E+05  0.1064E-05  0.0000E+00  0.0000E+00  0.1064E-05  0.9283E-07  0.0000E+00  0.0000E+00  0.2859E+00  0.0000E+00  0.5719E+00  0.0000E+00  0.8578E+00  0.0000E+00  0.0000E+00  0.0000E+00  0.0000E+00  0.0000E+00  0.8578E+00  0.0000E+00  0.0000E+00  0.0000E+00  0.0000E+00  0.0000E+00  0.0000E+00  0.0000E+00  0.0000E+00  0.0000E+00  0.0000E+00  0.0000E+00  0.0000E+00  0.0000E+00  0.0000E+00  0.0000E+00  0.0000E+00  0.0000E+00  0.0000E+00  0.0000E+00  0.0000E+00  0.0000E+00  0.0000E+00  0.0000E+00  0.0000E+00
REACH    2        0     1  0.2330E+03  0.2692E-05  0.0000E+00  0.0000E+00  0.2692E-05  0.2478E-06  0.0000E+00  0.0000E+00  0.7219E+00  0.0000E+00  0.1444E+01  0.0000E+00  0.2166E+01  0.0000E+00  0.0000E+00  0.0000E+00  0.0000E+00  0.0000E+00  0.2166E+01  0.0000E+00  0.0000E+00  0.0000E+00  0.0000E+00  0.0000E+00  0.0000E+00  0.0000E+00  0.0000E+00  0.0000E+00  0.0000E+00  0.0000E+00  0.0000E+00  0.0000E+00  0.0000E+00  0.0000E+00  0.0000E+00  0.0000E+00  0.0000E+00  0.0000E+00  0.0000E+00  0.0000E+00  0.0000E+00  0.0000E+00  0.0000E+00
REACH    3        0     1  0.1073E+05  0.4402E-05  0.0000E+00  0.0000E+00  0.4402E-05  0.2790E-06  0.0000E+00  0.0000E+00  0.1179E+01  0.0000E+00  0.2358E+01  0.0000E+00  0.3538E+01  0.0000E+00  0.0000E+00  0.0000E+00  0.0000E+00  0.0000E+00  0.3538E+01  0.0000E+00  0.0000E+00  0.0000E+00  0.0000E+00  0.0000E+00  0.0000E+00  0.0000E+00  0.0000E+00  0.0000E+00  0.0000E+00  0.0000E+00  0.0000E+00  0.0000E+00  0.0000E+00  0.0000E+00  0.0000E+00  0.0000E+00  0.0000E+00  0.0000E+00  0.0000E+00  0.0000E+00  0.0000E+00  0.0000E+00  0.0000E+00
REACH    4        0     1  0.9239E+04  0.1760E-06  0.0000E+00  0.0000E+00  0.1760E-06  0.9300E-07  0.0000E+00  0.0000E+00  0.4715E-01  0.0000E+00  0.9430E-01  0.0000E+00  0.1414E+00  0.0000E+00  0.0000E+00  0.0000E+00  0.0000E+00  0.0000E+00  0.1414E+00  0.0000E+00  0.0000E+00  0.0000E+00  0.0000E+00  0.0000E+00  0.0000E+00  0.0000E+00  0.0000E+00  0.0000E+00  0.0000E+00  0.0000E+00  0.0000E+00  0.0000E+00  0.0000E+00  0.0000E+00  0.0000E+00  0.0000E+00  0.0000E+00  0.0000E+00  0.0000E+00  0.0000E+00  0.0000E+00  0.0000E+00  0.0000E+00
REACH    5        0     1  0.2104E+03  0.2434E-05  0.0000E+00  0.0000E+00  0.2434E-05  0.9294E-07  0.0000E+00  0.0000E+00  0.6524E+00  0.0000E+00  0.1305E+01  0.0000E+00  0.1957E+01  0.0000E+00  0.0000E+00  0.0000E+00  0.0000E+00  0.0000E+00  0.1957E+01  0.0000E+00  0.0000E+00  0.0000E+00  0.0000E+00  0.0000E+00  0.0000E+00  0.0000E+00  0.0000E+00  0.0000E+00  0.0000E+00  0.0000E+00  0.0000E+00  0.0000E+00  0.0000E+00  0.0000E+00  0.0000E+00  0.0000E+00  0.0000E+00  0.0000E+00  0.0000E+00  0.0000E+00  0.0000E+00  0.0000E+00  0.0000E+00
REACH    6        0     1  0.1106E+04  0.7584E-06  0.0000E+00  0.0000E+00  0.7584E-06  0.1550E-06  0.0000E+00  0.0000E+00  0.2031E+00  0.0000E+00  0.4063E+00  0.0000E+00  0.6094E+00  0.0000E+00  0.0000E+00  0.0000E+00  0.0000E+00  0.0000E+00  0.6094E+00  0.0000E+00  0.0000E+00  0.0000E+00  0.0000E+00  0.0000E+00  0.0000E+00  0.0000E+00  0.0000E+00  0.0000E+00  0.0000E+00  0.0000E+00  0.0000E+00  0.0000E+00  0.0000E+00  0.0000E+00  0.0000E+00  0.0000E+00  0.0000E+00  0.0000E+00  0.0000E+00  0.0000E+00  0.0000E+00  0.0000E+00  0.0000E+00
REACH    7        0     1  0.4338E+03  0.5004E-05  0.0000E+00  0.0000E+00  0.5004E-05  0.9271E-07  0.0000E+00  0.0000E+00  0.1345E+01  0.0000E+00  0.2690E+01  0.0000E+00  0.4035E+01  0.0000E+00  0.0000E+00  0.0000E+00  0.0000E+00  0.0000E+00  0.4035E+01  0.0000E+00  0.0000E+00  0.0000E+00  0.0000E+00  0.0000E+00  0.0000E+00  0.0000E+00  0.0000E+00  0.0000E+00  0.0000E+00  0.0000E+00  0.0000E+00  0.0000E+00  0.0000E+00  0.0000E+00  0.0000E+00  0.0000E+00  0.0000E+00  0.0000E+00  0.0000E+00  0.0000E+00  0.0000E+00  0.0000E+00  0.0000E+00
REACH    8        0     1  0.6069E+03  0.4762E-06  0.0000E+00  0.0000E+00  0.4762E-06  0.1240E-06  0.0000E+00  0.0000E+00  0.1276E+00  0.0000E+00  0.2551E+00  0.0000E+00  0.3827E+00  0.0000E+00  0.0000E+00  0.0000E+00  0.0000E+00  0.0000E+00  0.3827E+00  0.0000E+00  0.0000E+00  0.0000E+00  0.0000E+00  0.0000E+00  0.0000E+00  0.0000E+00  0.0000E+00  0.0000E+00  0.0000E+00  0.0000E+00  0.0000E+00  0.0000E+00  0.0000E+00  0.0000E+00  0.0000E+00  0.0000E+00  0.0000E+00  0.0000E+00  0.0000E+00  0.0000E+00  0.0000E+00  0.0000E+00  0.0000E+00
REACH    9        0     1  0.1884E+03  0.2175E-05  0.0000E+00  0.0000E+00  0.2175E-05  0.6186E-07  0.0000E+00  0.0000E+00  0.5842E+00  0.0000E+00  0.1168E+01  0.0000E+00  0.1753E+01  0.0000E+00  0.0000E+00  0.0000E+00  0.0000E+00  0.0000E+00  0.1753E+01  0.0000E+00  0.0000E+00  0.0000E+00  0.0000E+00  0.0000E+00  0.0000E+00  0.0000E+00  0.0000E+00  0.0000E+00  0.0000E+00  0.0000E+00  0.0000E+00  0.0000E+00  0.0000E+00  0.0000E+00  0.0000E+00  0.0000E+00  0.0000E+00  0.0000E+00  0.0000E+00  0.0000E+00  0.0000E+00  0.0000E+00  0.0000E+00
REACH   10        0     1  0.9013E+04  0.5108E-05  0.0000E+00  0.0000E+00  0.5108E-05  0.1860E-06  0.0000E+00  0.0000E+00  0.1369E+01  0.0000E+00  0.2737E+01  0.0000E+00  0.4106E+01  0.0000E+00  0.0000E+00  0.0000E+00  0.0000E+00  0.0000E+00  0.4106E+01  0.0000E+00  0.0000E+00  0.0000E+00  0.0000E+00  0.0000E+00  0.0000E+00  0.0000E+00  0.0000E+00  0.0000E+00  0.0000E+00  0.0000E+00  0.0000E+00  0.0000E+00  0.0000E+00  0.0000E+00  0.0000E+00  0.0000E+00  0.0000E+00  0.0000E+00  0.0000E+00  0.0000E+00  0.0000E+00  0.0000E+00  0.0000E+00
REACH   11        0     1  0.2665E+03  0.3081E-05  0.0000E+00  0.0000E+00  0.3081E-05  0.6193E-07  0.0000E+00  0.0000E+00  0.8263E+00  0.0000E+00  0.1653E+01  0.0000E+00  0.2479E+01  0.0000E+00  0.0000E+00  0.0000E+00  0.0000E+00  0.0000E+00  0.2479E+01  0.0000E+00  0.0000E+00  0.0000E+00  0.0000E+00  0.0000E+00  0.0000E+00  0.0000E+00  0.0000E+00  0.0000E+00  0.0000E+00  0.0000E+00  0.0000E+00  0.0000E+00  0.0000E+00  0.0000E+00  0.0000E+00  0.0000E+00  0.0000E+00  0.0000E+00  0.0000E+00  0.0000E+00  0.0000E+00  0.0000E+00  0.0000E+00
REACH   12        0     1  0.3773E+03  0.4361E-05  0.0000E+00  0.0000E+00  0.4361E-05  0.1549E-06  0.0000E+00  0.0000E+00  0.1170E+01  0.0000E+00  0.2340E+01  0.0000E+00  0.3509E+01  0.0000E+00  0.0000E+00  0.0000E+00  0.0000E+00  0.0000E+00  0.3509E+01  0.0000E+00  0.0000E+00  0.0000E+00  0.0000E+00  0.0000E+00  0.0000E+00  0.0000E+00  0.0000E+00  0.0000E+00  0.0000E+00  0.0000E+00  0.0000E+00  0.0000E+00  0.0000E+00  0.0000E+00  0.0000E+00  0.0000E+00  0.0000E+00  0.0000E+00  0.0000E+00  0.0000E+00  0.0000E+00  0.0000E+00  0.0000E+00
REACH   13        0     1  0.8305E+04  0.1163E-05  0.0000E+00  0.0000E+00  0.1163E-05  0.6200E-07  0.0000E+00  0.0000E+00  0.3115E+00  0.0000E+00  0.6230E+00  0.0000E+00  0.9344E+00  0.0000E+00  0.0000E+00  0.0000E+00  0.0000E+00  0.0000E+00  0.9344E+00  0.0000E+00  0.0000E+00  0.0000E+00  0.0000E+00  0.0000E+00  0.0000E+00  0.0000E+00  0.0000E+00  0.0000E+00  0.0000E+00  0.0000E+00  0.0000E+00  0.0000E+00  0.0000E+00  0.0000E+00  0.0000E+00  0.0000E+00  0.0000E+00  0.0000E+00  0.0000E+00  0.0000E+00  0.0000E+00  0.0000E+00  0.0000E+00
REACH   14        0     1  0.4059E+03  0.4698E-05  0.0000E+00  0.0000E+00  0.4698E-05  0.1550E-06  0.0000E+00  0.0000E+00  0.1258E+01  0.0000E+00  0.2517E+01  0.0000E+00  0.3775E+01  0.0000E+00  0.0000E+00  0.0000E+00  0.0000E+00  0.0000E+00  0.3775E+01  0.0000E+00  0.0000E+00  0.0000E+00  0.0000E+00  0.0000E+00  0.0000E+00  0.0000E+00  0.0000E+00  0.0000E+00  0.0000E+00  0.0000E+00  0.0000E+00  0.0000E+00  0.0000E+00  0.0000E+00  0.0000E+00  0.0000E+00  0.0000E+00  0.0000E+00  0.0000E+00  0.0000E+00  0.0000E+00  0.0000E+00  0.0000E+00
REACH   15        0     1  0.7799E+04  0.2095E-06  0.0000E+00  0.0000E+00  0.2095E-06  0.2590E-06  0.0000E+00  0.0000E+00  0.2897E-01  0.0000E+00  0.5794E-01  0.0000E+00  0.8690E-01  0.0000E+00  0.0000E+00  0.0000E+00  0.0000E+00  0.0000E+00  0.8690E-01  0.0000E+00  0.0000E+00  0.0000E+00  0.0000E+00  0.0000E+00  0.0000E+00  0.0000E+00  0.0000E+00  0.0000E+00  0.0000E+00  0.0000E+00  0.0000E+00  0.0000E+00  0.0000E+00  0.0000E+00  0.0000E+00  0.0000E+00  0.0000E+00  0.0000E+00  0.0000E+00  0.0000E+00  0.0000E+00  0.0000E+00  0.0000E+00
REACH   16        0     1  0.1961E+03  0.2270E-05  0.4542E-07  0.0000E+00  0.2270E-05  0.1860E-06  0.4200E-07  0.5062E-01  0.6081E+00  0.0000E+00  0.1216E+01  0.0000E+00  0.1824E+01  0.0000E+00  0.0000E+00  0.0000E+00  0.0000E+00  0.0000E+00  0.1824E+01  0.0000E+00  0.0000E+00  0.0000E+00  0.0000E+00  0.0000E+00  0.0000E+00  0.0000E+00  0.0000E+00  0.0000E+00  0.0000E+00  0.0000E+00  0.0000E+00  0.0000E+00  0.0000E+00  0.0000E+00  0.0000E+00  0.0000E+00  0.0000E+00  0.0000E+00  0.0000E+00  0.0000E+00  0.0000E+00  0.0000E+00  0.0000E+00
REACH   17        0     1  0.7593E+04  0.2554E-05  0.5598E-07  0.0000E+00  0.2554E-05  0.2180E-06  0.0000E+00  0.0000E+00  0.6604E+00  0.0000E+00  0.1321E+01  0.0000E+00  0.1981E+01  0.0000E+00  0.0000E+00  0.0000E+00  0.0000E+00  0.0000E+00  0.1981E+01  0.0000E+00  0.0000E+00  0.0000E+00  0.0000E+00  0.0000E+00  0.0000E+00  0.0000E+00  0.0000E+00  0.0000E+00  0.0000E+00  0.0000E+00  0.0000E+00  0.0000E+00  0.0000E+00  0.0000E+00  0.0000E+00  0.0000E+00  0.0000E+00  0.0000E+00  0.0000E+00  0.0000E+00  0.0000E+00  0.0000E+00  0.0000E+00
REACH   18        0     1  0.7187E+04  0.1962E-05  0.4365E-07  0.0000E+00  0.1962E-05  0.2900E-06  0.0000E+00  0.0000E+00  0.5038E+00  0.0000E+00  0.1008E+01  0.0000E+00  0.1511E+01  0.0000E+00  0.0000E+00  0.0000E+00  0.0000E+00  0.0000E+00  0.1511E+01  0.0000E+00  0.0000E+00  0.0000E+00  0.0000E+00  0.0000E+00  0.0000E+00  0.0000E+00  0.0000E+00  0.0000E+00  0.0000E+00  0.0000E+00  0.0000E+00  0.0000E+00  0.0000E+00  0.0000E+00  0.0000E+00  0.0000E+00  0.0000E+00  0.0000E+00  0.0000E+00  0.0000E+00  0.0000E+00  0.0000E+00  0.0000E+00
REACH   19        0     1  0.6844E+04  0.1473E-05  0.3853E-07  0.0000E+00  0.1473E-05  0.1520E-06  0.0000E+00  0.0000E+00  0.3507E+00  0.0000E+00  0.7014E+00  0.0000E+00  0.1052E+01  0.0000E+00  0.0000E+00  0.0000E+00  0.0000E+00  0.0000E+00  0.1052E+01  0.0000E+00  0.0000E+00  0.0000E+00  0.0000E+00  0.0000E+00  0.0000E+00  0.0000E+00  0.0000E+00  0.0000E+00  0.0000E+00  0.0000E+00  0.0000E+00  0.0000E+00  0.0000E+00  0.0000E+00  0.0000E+00  0.0000E+00  0.0000E+00  0.0000E+00  0.0000E+00  0.0000E+00  0.0000E+00  0.0000E+00  0.0000E+00
REACH   20        0     1  0.1810E+03  0.2094E-05  0.4233E-07  0.0000E+00  0.2094E-05  0.3100E-06  0.8000E-07  0.9074E-01  0.5610E+00  0.0000E+00  0.1122E+01  0.0000E+00  0.1683E+01  0.0000E+00  0.0000E+00  0.0000E+00  0.0000E+00  0.0000E+00  0.1683E+01  0.0000E+00  0.0000E+00  0.0000E+00  0.0000E+00  0.0000E+00  0.0000E+00  0.0000E+00  0.0000E+00  0.0000E+00  0.0000E+00  0.0000E+00  0.0000E+00  0.0000E+00  0.0000E+00  0.0000E+00  0.0000E+00  0.0000E+00  0.0000E+00  0.0000E+00  0.0000E+00  0.0000E+00  0.0000E+00  0.0000E+00  0.0000E+00
REACH   21        0     1  0.1930E+03  0.2234E-05  0.4470E-07  0.0000E+00  0.2234E-05  0.1550E-06  0.3500E-07  0.4286E-01  0.5984E+00  0.0000E+00  0.1197E+01  0.0000E+00  0.1795E+01  0.0000E+00  0.0000E+00  0.0000E+00  0.0000E+00  0.0000E+00  0.1795E+01  0.0000E+00  0.0000E+00  0.0000E+00  0.0000E+00  0.0000E+00  0.0000E+00  0.0000E+00  0.0000E+00  0.0000E+00  0.0000E+00  0.0000E+00  0.0000E+00  0.0000E+00  0.0000E+00  0.0000E+00  0.0000E+00  0.0000E+00  0.0000E+00  0.0000E+00  0.0000E+00  0.0000E+00  0.0000E+00  0.0000E+00  0.0000E+00
REACH   22        0     1  0.2531E+03  0.2929E-05  0.5861E-07  0.0000E+00  0.2929E-05  0.3410E-06  0.7700E-07  0.7191E-01  0.7847E+00  0.0000E+00  0.1569E+01  0.0000E+00  0.2354E+01  0.0000E+00  0.0000E+00  0.0000E+00  0.0000E+00  0.0000E+00  0.2354E+01  0.0000E+00  0.0000E+00  0.0000E+00  0.0000E+00  0.0000E+00  0.0000E+00  0.0000E+00  0.0000E+00  0.0000E+00  0.0000E+00  0.0000E+00  0.0000E+00  0.0000E+00  0.0000E+00  0.0000E+00  0.0000E+00  0.0000E+00  0.0000E+00  0.0000E+00  0.0000E+00  0.0000E+00  0.0000E+00  0.0000E+00  0.0000E+00
REACH   23        0     1  0.6477E+04  0.4927E-05  0.1047E-06  0.0000E+00  0.4927E-05  0.1440E-06  0.0000E+00  0.0000E+00  0.1290E+01  0.0000E+00  0.2580E+01  0.0000E+00  0.3869E+01  0.0000E+00  0.0000E+00  0.0000E+00  0.0000E+00  0.0000E+00  0.3869E+01  0.0000E+00  0.0000E+00  0.0000E+00  0.0000E+00  0.0000E+00  0.0000E+00  0.0000E+00  0.0000E+00  0.0000E+00  0.0000E+00  0.0000E+00  0.0000E+00  0.0000E+00  0.0000E+00  0.0000E+00  0.0000E+00  0.0000E+00  0.0000E+00  0.0000E+00  0.0000E+00  0.0000E+00  0.0000E+00  0.0000E+00  0.0000E+00
REACH   24        0     1  0.1506E+03  0.1743E-05  0.3487E-07  0.0000E+00  0.1743E-05  0.3410E-06  0.7700E-07  0.1209E+00  0.4668E+00  0.0000E+00  0.9337E+00  0.0000E+00  0.1400E+01  0.0000E+00  0.0000E+00  0.0000E+00  0.0000E+00  0.0000E+00  0.1400E+01  0.0000E+00  0.0000E+00  0.0000E+00  0.0000E+00  0.0000E+00  0.0000E+00  0.0000E+00  0.0000E+00  0.0000E+00  0.0000E+00  0.0000E+00  0.0000E+00  0.0000E+00  0.0000E+00  0.0000E+00  0.0000E+00  0.0000E+00  0.0000E+00  0.0000E+00  0.0000E+00  0.0000E+00  0.0000E+00  0.0000E+00  0.0000E+00
REACH   25        0     1  0.5911E+04  0.3364E-05  0.7714E-07  0.0000E+00  0.3364E-05  0.1440E-06  0.0000E+00  0.0000E+00  0.8532E+00  0.0000E+00  0.1706E+01  0.0000E+00  0.2560E+01  0.0000E+00  0.0000E+00  0.0000E+00  0.0000E+00  0.0000E+00  0.2560E+01  0.0000E+00  0.0000E+00  0.0000E+00  0.0000E+00  0.0000E+00  0.0000E+00  0.0000E+00  0.0000E+00  0.0000E+00  0.0000E+00  0.0000E+00  0.0000E+00  0.0000E+00  0.0000E+00  0.0000E+00  0.0000E+00  0.0000E+00  0.0000E+00  0.0000E+00  0.0000E+00  0.0000E+00  0.0000E+00  0.0000E+00  0.0000E+00
REACH   26        0     1  0.4609E+04  0.5880E-05  0.1242E-06  0.0000E+00  0.5880E-05  0.2160E-06  0.0000E+00  0.0000E+00  0.1543E+01  0.0000E+00  0.3086E+01  0.0000E+00  0.4629E+01  0.0000E+00  0.0000E+00  0.0000E+00  0.0000E+00  0.0000E+00  0.4629E+01  0.0000E+00  0.0000E+00  0.0000E+00  0.0000E+00  0.0000E+00  0.0000E+00  0.0000E+00  0.0000E+00  0.0000E+00  0.0000E+00  0.0000E+00  0.0000E+00  0.0000E+00  0.0000E+00  0.0000E+00  0.0000E+00  0.0000E+00  0.0000E+00  0.0000E+00  0.0000E+00  0.0000E+00  0.0000E+00  0.0000E+00  0.0000E+00
REACH   27        0     1  0.3778E+03  0.4363E-05  0.8729E-07  0.0000E+00  0.4363E-05  0.1238E-06  0.2797E-07  0.3657E-01  0.1171E+01  0.0000E+00  0.2343E+01  0.0000E+00  0.3514E+01  0.0000E+00  0.0000E+00  0.0000E+00  0.0000E+00  0.0000E+00  0.3514E+01  0.0000E+00  0.0000E+00  0.0000E+00  0.0000E+00  0.0000E+00  0.0000E+00  0.0000E+00  0.0000E+00  0.0000E+00  0.0000E+00  0.0000E+00  0.0000E+00  0.0000E+00  0.0000E+00  0.0000E+00  0.0000E+00  0.0000E+00  0.0000E+00  0.0000E+00  0.0000E+00  0.0000E+00  0.0000E+00  0.0000E+00  0.0000E+00
REACH   28        0     1  0.1027E+04  0.2198E-05  0.5503E-07  0.0000E+00  0.2198E-05  0.3300E-06  0.0000E+00  0.0000E+00  0.5359E+00  0.0000E+00  0.1072E+01  0.0000E+00  0.1608E+01  0.0000E+00  0.0000E+00  0.0000E+00  0.0000E+00  0.0000E+00  0.1608E+01  0.0000E+00  0.0000E+00  0.0000E+00  0.0000E+00  0.0000E+00  0.0000E+00  0.0000E+00  0.0000E+00  0.0000E+00  0.0000E+00  0.0000E+00  0.0000E+00  0.0000E+00  0.0000E+00  0.0000E+00  0.0000E+00  0.0000E+00  0.0000E+00  0.0000E+00  0.0000E+00  0.0000E+00  0.0000E+00  0.0000E+00  0.0000E+00
REACH   29        0     1  0.3915E+04  0.3124E-05  0.7452E-07  0.0000E+00  0.3124E-05  0.1200E-06  0.0000E+00  0.0000E+00  0.7791E+00  0.0000E+00  0.1558E+01  0.0000E+00  0.2337E+01  0.0000E+00  0.0000E+00  0.0000E+00  0.0000E+00  0.0000E+00  0.2337E+01  0.0000E+00  0.0000E+00  0.0000E+00  0.0000E+00  0.0000E+00  0.0000E+00  0.0000E+00  0.0000E+00  0.0000E+00  0.0000E+00  0.0000E+00  0.0000E+00  0.0000E+00  0.0000E+00  0.0000E+00  0.0000E+00  0.0000E+00  0.0000E+00  0.0000E+00  0.0000E+00  0.0000E+00  0.0000E+00  0.0000E+00  0.0000E+00
REACH   30        0     1  0.1959E+03  0.2267E-05  0.4536E-07  0.0000E+00  0.2267E-05  0.1860E-06  0.4200E-07  0.5068E-01  0.6074E+00  0.0000E+00  0.1215E+01  0.0000E+00  0.1822E+01  0.0000E+00  0.0000E+00  0.0000E+00  0.0000E+00  0.0000E+00  0.1822E+01  0.0000E+00  0.0000E+00  0.0000E+00  0.0000E+00  0.0000E+00  0.0000E+00  0.0000E+00  0.0000E+00  0.0000E+00  0.0000E+00  0.0000E+00  0.0000E+00  0.0000E+00  0.0000E+00  0.0000E+00  0.0000E+00  0.0000E+00  0.0000E+00  0.0000E+00  0.0000E+00  0.0000E+00  0.0000E+00  0.0000E+00  0.0000E+00
REACH   31        0     1  0.4764E+03  0.5512E-05  0.1103E-06  0.0000E+00  0.5512E-05  0.1550E-06  0.3499E-07  0.3622E-01  0.1477E+01  0.0000E+00  0.2954E+01  0.0000E+00  0.4431E+01  0.0000E+00  0.0000E+00  0.0000E+00  0.0000E+00  0.0000E+00  0.4431E+01  0.0000E+00  0.0000E+00  0.0000E+00  0.0000E+00  0.0000E+00  0.0000E+00  0.0000E+00  0.0000E+00  0.0000E+00  0.0000E+00  0.0000E+00  0.0000E+00  0.0000E+00  0.0000E+00  0.0000E+00  0.0000E+00  0.0000E+00  0.0000E+00  0.0000E+00  0.0000E+00  0.0000E+00  0.0000E+00  0.0000E+00  0.0000E+00
REACH   32        0     1  0.3369E+04  0.6850E-05  0.1486E-06  0.0000E+00  0.6850E-05  0.1676E-06  0.0000E+00  0.0000E+00  0.1794E+01  0.0000E+00  0.3589E+01  0.0000E+00  0.5383E+01  0.0000E+00  0.0000E+00  0.0000E+00  0.0000E+00  0.0000E+00  0.5383E+01  0.0000E+00  0.0000E+00  0.0000E+00  0.0000E+00  0.0000E+00  0.0000E+00  0.0000E+00  0.0000E+00  0.0000E+00  0.0000E+00  0.0000E+00  0.0000E+00  0.0000E+00  0.0000E+00  0.0000E+00  0.0000E+00  0.0000E+00  0.0000E+00  0.0000E+00  0.0000E+00  0.0000E+00  0.0000E+00  0.0000E+00  0.0000E+00
REACH   33        0     1  0.2952E+03  0.3417E-05  0.6835E-07  0.0000E+00  0.3417E-05  0.2480E-06  0.5600E-07  0.9351E-01  0.9152E+00  0.0000E+00  0.1830E+01  0.0000E+00  0.2746E+01  0.0000E+00  0.0000E+00  0.0000E+00  0.0000E+00  0.0000E+00  0.2746E+01  0.0000E+00  0.0000E+00  0.0000E+00  0.0000E+00  0.0000E+00  0.0000E+00  0.0000E+00  0.0000E+00  0.0000E+00  0.0000E+00  0.0000E+00  0.0000E+00  0.0000E+00  0.0000E+00  0.0000E+00  0.0000E+00  0.0000E+00  0.0000E+00  0.0000E+00  0.0000E+00  0.0000E+00  0.0000E+00  0.0000E+00  0.0000E+00
REACH   34        0     1  0.2200E+03  0.2547E-05  0.5095E-07  0.0000E+00  0.2547E-05  0.2790E-06  0.6300E-07  0.6768E-01  0.6822E+00  0.0000E+00  0.1364E+01  0.0000E+00  0.2047E+01  0.0000E+00  0.0000E+00  0.0000E+00  0.0000E+00  0.0000E+00  0.2047E+01  0.0000E+00  0.0000E+00  0.0000E+00  0.0000E+00  0.0000E+00  0.0000E+00  0.0000E+00  0.0000E+00  0.0000E+00  0.0000E+00  0.0000E+00  0.0000E+00  0.0000E+00  0.0000E+00  0.0000E+00  0.0000E+00  0.0000E+00  0.0000E+00  0.0000E+00  0.0000E+00  0.0000E+00  0.0000E+00  0.0000E+00  0.0000E+00
REACH   35        0     1  0.2570E+04  0.7681E-05  0.1568E-06  0.0000E+00  0.7681E-05  0.1674E-06  0.0000E+00  0.0000E+00  0.2065E+01  0.0000E+00  0.4131E+01  0.0000E+00  0.6196E+01  0.0000E+00  0.0000E+00  0.0000E+00  0.0000E+00  0.0000E+00  0.6196E+01  0.0000E+00  0.0000E+00  0.0000E+00  0.0000E+00  0.0000E+00  0.0000E+00  0.0000E+00  0.0000E+00  0.0000E+00  0.0000E+00  0.0000E+00  0.0000E+00  0.0000E+00  0.0000E+00  0.0000E+00  0.0000E+00  0.0000E+00  0.0000E+00  0.0000E+00  0.0000E+00  0.0000E+00  0.0000E+00  0.0000E+00  0.0000E+00
REACH   36        0     1  0.1912E+03  0.2171E-05  0.4344E-07  0.0000E+00  0.2171E-05  0.9225E-07  0.2083E-07  0.2625E-01  0.5929E+00  0.0000E+00  0.1186E+01  0.0000E+00  0.1779E+01  0.0000E+00  0.0000E+00  0.0000E+00  0.0000E+00  0.0000E+00  0.1779E+01  0.0000E+00  0.0000E+00  0.0000E+00  0.0000E+00  0.0000E+00  0.0000E+00  0.0000E+00  0.0000E+00  0.0000E+00  0.0000E+00  0.0000E+00  0.0000E+00  0.0000E+00  0.0000E+00  0.0000E+00  0.0000E+00  0.0000E+00  0.0000E+00  0.0000E+00  0.0000E+00  0.0000E+00  0.0000E+00  0.0000E+00  0.0000E+00
REACH   37        0     1  0.1712E+04  0.1944E-06  0.1440E-07  0.0000E+00  0.1944E-06  0.1017E-06  0.0000E+00  0.0000E+00  0.2246E-02  0.0000E+00  0.4492E-02  0.0000E+00  0.6738E-02  0.0000E+00  0.0000E+00  0.0000E+00  0.0000E+00  0.0000E+00  0.6738E-02  0.0000E+00  0.0000E+00  0.0000E+00  0.0000E+00  0.0000E+00  0.0000E+00  0.0000E+00  0.0000E+00  0.0000E+00  0.0000E+00  0.0000E+00  0.0000E+00  0.0000E+00  0.0000E+00  0.0000E+00  0.0000E+00  0.0000E+00  0.0000E+00  0.0000E+00  0.0000E+00  0.0000E+00  0.0000E+00  0.0000E+00  0.0000E+00
REACH   38        0     1  0.1930E+03  0.2176E-05  0.4353E-07  0.0000E+00  0.2176E-05  0.1537E-06  0.3470E-07  0.4364E-01  0.5978E+00  0.0000E+00  0.1196E+01  0.0000E+00  0.1794E+01  0.0000E+00  0.0000E+00  0.0000E+00  0.0000E+00  0.0000E+00  0.1794E+01  0.0000E+00  0.0000E+00  0.0000E+00  0.0000E+00  0.0000E+00  0.0000E+00  0.0000E+00  0.0000E+00  0.0000E+00  0.0000E+00  0.0000E+00  0.0000E+00  0.0000E+00  0.0000E+00  0.0000E+00  0.0000E+00  0.0000E+00  0.0000E+00  0.0000E+00  0.0000E+00  0.0000E+00  0.0000E+00  0.0000E+00  0.0000E+00
REACH   39        0     1  0.1479E+04  0.5996E-05  0.1324E-06  0.0000E+00  0.5996E-05  0.1438E-06  0.0000E+00  0.0000E+00  0.1552E+01  0.0000E+00  0.3105E+01  0.0000E+00  0.4657E+01  0.0000E+00  0.0000E+00  0.0000E+00  0.0000E+00  0.0000E+00  0.4657E+01  0.0000E+00  0.0000E+00  0.0000E+00  0.0000E+00  0.0000E+00  0.0000E+00  0.0000E+00  0.0000E+00  0.0000E+00  0.0000E+00  0.0000E+00  0.0000E+00  0.0000E+00  0.0000E+00  0.0000E+00  0.0000E+00  0.0000E+00  0.0000E+00  0.0000E+00  0.0000E+00  0.0000E+00  0.0000E+00  0.0000E+00  0.0000E+00
REACH   40        0     1  0.7850E+03  0.8904E-05  0.1781E-06  0.0000E+00  0.8904E-05  0.1844E-06  0.4163E-07  0.2667E-01  0.2433E+01  0.0000E+00  0.4866E+01  0.0000E+00  0.7299E+01  0.0000E+00  0.0000E+00  0.0000E+00  0.0000E+00  0.0000E+00  0.7299E+01  0.0000E+00  0.0000E+00  0.0000E+00  0.0000E+00  0.0000E+00  0.0000E+00  0.0000E+00  0.0000E+00  0.0000E+00  0.0000E+00  0.0000E+00  0.0000E+00  0.0000E+00  0.0000E+00  0.0000E+00  0.0000E+00  0.0000E+00  0.0000E+00  0.0000E+00  0.0000E+00  0.0000E+00  0.0000E+00  0.0000E+00  0.0000E+00
REACH   41        0     1  0.2326E+03  0.2684E-05  0.5369E-07  0.0000E+00  0.2684E-05  0.2166E-06  0.4892E-07  0.4987E-01  0.7209E+00  0.0000E+00  0.1442E+01  0.0000E+00  0.2163E+01  0.0000E+00  0.0000E+00  0.0000E+00  0.0000E+00  0.0000E+00  0.2163E+01  0.0000E+00  0.0000E+00  0.0000E+00  0.0000E+00  0.0000E+00  0.0000E+00  0.0000E+00  0.0000E+00  0.0000E+00  0.0000E+00  0.0000E+00  0.0000E+00  0.0000E+00  0.0000E+00  0.0000E+00  0.0000E+00  0.0000E+00  0.0000E+00  0.0000E+00  0.0000E+00  0.0000E+00  0.0000E+00  0.0000E+00  0.0000E+00
REACH    1        0     2  0.1105E+05  0.1064E-05  0.0000E+00  0.0000E+00  0.1064E-05  0.8684E-07  0.0000E+00  0.0000E+00  0.2675E+00  0.0000E+00  0.5350E+00  0.0000E+00  0.8025E+00  0.0000E+00  0.0000E+00  0.0000E+00  0.0000E+00  0.0000E+00  0.8025E+00  0.0000E+00  0.0000E+00  0.0000E+00  0.0000E+00  0.0000E+00  0.0000E+00  0.0000E+00  0.0000E+00  0.0000E+00  0.0000E+00  0.0000E+00  0.0000E+00  0.0000E+00  0.0000E+00  0.0000E+00  0.0000E+00  0.0000E+00  0.0000E+00  0.0000E+00  0.0000E+00  0.0000E+00  0.0000E+00  0.0000E+00  0.0000E+00
REACH    2        0     2  0.2330E+03  0.2692E-05  0.0000E+00  0.0000E+00  0.2692E-05  0.2319E-06  0.0000E+00  0.0000E+00  0.6754E+00  0.0000E+00  0.1351E+01  0.0000E+00  0.2026E+01  0.0000E+00  0.0000E+00  0.0000E+00  0.0000E+00  0.0000E+00  0.2026E+01  0.0000E+00  0.0000E+00  0.0000E+00  0.0000E+00  0.0000E+00  0.0000E+00  0.0000E+00  0.0000E+00  0.0000E+00  0.0000E+00  0.0000E+00  0.0000E+00  0.0000E+00  0.0000E+00  0.0000E+00  0.0000E+00  0.0000E+00  0.0000E+00  0.0000E+00  0.0000E+00  0.0000E+00  0.0000E+00  0.0000E+00  0.0000E+00
REACH    3        0     2  0.1073E+05  0.4402E-05  0.0000E+00  0.0000E+00  0.4402E-05  0.2610E-06  0.0000E+00  0.0000E+00  0.1103E+01  0.0000E+00  0.2206E+01  0.0000E+00  0.3309E+01  0.0000E+00  0.0000E+00  0.0000E+00  0.0000E+00  0.0000E+00  0.3309E+01  0.0000E+00  0.0000E+00  0.0000E+00  0.0000E+00  0.0000E+00  0.0000E+00  0.0000E+00  0.0000E+00  0.0000E+00  0.0000E+00  0.0000E+00  0.0000E+00  0.0000E+00  0.0000E+00  0.0000E+00  0.0000E+00  0.0000E+00  0.0000E+00  0.0000E+00  0.0000E+00  0.0000E+00  0.0000E+00  0.0000E+00  0.0000E+00
REACH    4        0     2  0.9239E+04  0.1760E-06  0.0000E+00  0.0000E+00  0.1760E-06  0.8700E-07  0.0000E+00  0.0000E+00  0.4411E-01  0.0000E+00  0.8821E-01  0.0000E+00  0.1323E+00  0.0000E+00  0.0000E+00  0.0000E+00  0.0000E+00  0.0000E+00  0.1323E+00  0.0000E+00  0.0000E+00  0.0000E+00  0.0000E+00  0.0000E+00  0.0000E+00  0.0000E+00  0.0000E+00  0.0000E+00  0.0000E+00  0.0000E+00  0.0000E+00  0.0000E+00  0.0000E+00  0.0000E+00  0.0000E+00  0.0000E+00  0.0000E+00  0.0000E+00  0.0000E+00  0.0000E+00  0.0000E+00  0.0000E+00  0.0000E+00
REACH    5        0     2  0.2104E+03  0.2434E-05  0.0000E+00  0.0000E+00  0.2434E-05  0.8694E-07  0.0000E+00  0.0000E+00  0.6103E+00  0.0000E+00  0.1221E+01  0.0000E+00  0.1831E+01  0.0000E+00  0.0000E+00  0.0000E+00  0.0000E+00  0.0000E+00  0.1831E+01  0.0000E+00  0.0000E+00  0.0000E+00  0.0000E+00  0.0000E+00  0.0000E+00  0.0000E+00  0.0000E+00  0.0000E+00  0.0000E+00  0.0000E+00  0.0000E+00  0.0000E+00  0.0000E+00  0.0000E+00  0.0000E+00  0.0000E+00  0.0000E+00  0.0000E+00  0.0000E+00  0.0000E+00  0.0000E+00  0.0000E+00  0.0000E+00
REACH    6        0     2  0.1106E+04  0.7584E-06  0.0000E+00  0.0000E+00  0.7584E-06  0.1450E-06  0.0000E+00  0.0000E+00  0.1900E+00  0.0000E+00  0.3801E+00  0.0000E+00  0.5701E+00  0.0000E+00  0.0000E+00  0.0000E+00  0.0000E+00  0.0000E+00  0.5701E+00  0.0000E+00  0.0000E+00  0.0000E+00  0.0000E+00  0.0000E+00  0.0000E+00  0.0000E+00  0.0000E+00  0.0000E+00  0.0000E+00  0.0000E+00  0.0000E+00  0.0000E+00  0.0000E+00  0.0000E+00  0.0000E+00  0.0000E+00  0.0000E+00  0.0000E+00  0.0000E+00  0.0000E+00  0.0000E+00  0.0000E+00  0.0000E+00
REACH    7        0     2  0.4338E+03  0.5004E-05  0.0000E+00  0.0000E+00  0.5004E-05  0.8673E-07  0.0000E+00  0.0000E+00  0.1258E+01  0.0000E+00  0.2516E+01  0.0000E+00  0.3774E+01  0.0000E+00  0.0000E+00  0.0000E+00  0.0000E+00  0.0000E+00  0.3774E+01  0.0000E+00  0.0000E+00  0.0000E+00  0.0000E+00  0.0000E+00  0.0000E+00  0.0000E+00  0.0000E+00  0.0000E+00  0.0000E+00  0.0000E+00  0.0000E+00  0.0000E+00  0.0000E+00  0.0000E+00  0.0000E+00  0.0000E+00  0.0000E+00  0.0000E+00  0.0000E+00  0.0000E+00  0.0000E+00  0.0000E+00  0.0000E+00
REACH    8        0     2  0.6069E+03  0.4762E-06  0.0000E+00  0.0000E+00  0.4762E-06  0.1160E-06  0.0000E+00  0.0000E+00  0.1193E+00  0.0000E+00  0.2386E+00  0.0000E+00  0.3580E+00  0.0000E+00  0.0000E+00  0.0000E+00  0.0000E+00  0.0000E+00  0.3580E+00  0.0000E+00  0.0000E+00  0.0000E+00  0.0000E+00  0.0000E+00  0.0000E+00  0.0000E+00  0.0000E+00  0.0000E+00  0.0000E+00  0.0000E+00  0.0000E+00  0.0000E+00  0.0000E+00  0.0000E+00  0.0000E+00  0.0000E+00  0.0000E+00  0.0000E+00  0.0000E+00  0.0000E+00  0.0000E+00  0.0000E+00  0.0000E+00
REACH    9        0     2  0.1884E+03  0.2175E-05  0.0000E+00  0.0000E+00  0.2175E-05  0.5787E-07  0.0000E+00  0.0000E+00  0.5465E+00  0.0000E+00  0.1093E+01  0.0000E+00  0.1640E+01  0.0000E+00  0.0000E+00  0.0000E+00  0.0000E+00  0.0000E+00  0.1640E+01  0.0000E+00  0.0000E+00  0.0000E+00  0.0000E+00  0.0000E+00  0.0000E+00  0.0000E+00  0.0000E+00  0.0000E+00  0.0000E+00  0.0000E+00  0.0000E+00  0.0000E+00  0.0000E+00  0.0000E+00  0.0000E+00  0.0000E+00  0.0000E+00  0.0000E+00  0.0000E+00  0.0000E+00  0.0000E+00  0.0000E+00  0.0000E+00
REACH   10        0     2  0.9013E+04  0.5108E-05  0.0000E+00  0.0000E+00  0.5108E-05  0.1740E-06  0.0000E+00  0.0000E+00  0.1280E+01  0.0000E+00  0.2561E+01  0.0000E+00  0.3841E+01  0.0000E+00  0.0000E+00  0.0000E+00  0.0000E+00  0.0000E+00  0.3841E+01  0.0000E+00  0.0000E+00  0.0000E+00  0.0000E+00  0.0000E+00  0.0000E+00  0.0000E+00  0.0000E+00  0.0000E+00  0.0000E+00  0.0000E+00  0.0000E+00  0.0000E+00  0.0000E+00  0.0000E+00  0.0000E+00  0.0000E+00  0.0000E+00  0.0000E+00  0.0000E+00  0.0000E+00  0.0000E+00  0.0000E+00  0.0000E+00
REACH   11        0     2  0.2665E+03  0.3081E-05  0.0000E+00  0.0000E+00  0.3081E-05  0.5794E-07  0.0000E+00  0.0000E+00  0.7730E+00  0.0000E+00  0.1546E+01  0.0000E+00  0.2319E+01  0.0000E+00  0.0000E+00  0.0000E+00  0.0000E+00  0.0000E+00  0.2319E+01  0.0000E+00  0.0000E+00  0.0000E+00  0.0000E+00  0.0000E+00  0.0000E+00  0.0000E+00  0.0000E+00  0.0000E+00  0.0000E+00  0.0000E+00  0.0000E+00  0.0000E+00  0.0000E+00  0.0000E+00  0.0000E+00  0.0000E+00  0.0000E+00  0.0000E+00  0.0000E+00  0.0000E+00  0.0000E+00  0.0000E+00  0.0000E+00
REACH   12        0     2  0.3773E+03  0.4361E-05  0.0000E+00  0.0000E+00  0.4361E-05  0.1449E-06  0.0000E+00  0.0000E+00  0.1094E+01  0.0000E+00  0.2189E+01  0.0000E+00  0.3283E+01  0.0000E+00  0.0000E+00  0.0000E+00  0.0000E+00  0.0000E+00  0.3283E+01  0.0000E+00  0.0000E+00  0.0000E+00  0.0000E+00  0.0000E+00  0.0000E+00  0.0000E+00  0.0000E+00  0.0000E+00  0.0000E+00  0.0000E+00  0.0000E+00  0.0000E+00  0.0000E+00  0.0000E+00  0.0000E+00  0.0000E+00  0.0000E+00  0.0000E+00  0.0000E+00  0.0000E+00  0.0000E+00  0.0000E+00  0.0000E+00
REACH   13        0     2  0.8305E+04  0.1163E-05  0.0000E+00  0.0000E+00  0.1163E-05  0.5800E-07  0.0000E+00  0.0000E+00  0.2914E+00  0.0000E+00  0.5828E+00  0.0000E+00  0.8741E+00  0.0000E+00  0.0000E+00  0.0000E+00  0.0000E+00  0.0000E+00  0.8741E+00  0.0000E+00  0.0000E+00  0.0000E+00  0.0000E+00  0.0000E+00  0.0000E+00  0.0000E+00  0.0000E+00  0.0000E+00  0.0000E+00  0.0000E+00  0.0000E+00  0.0000E+00  0.0000E+00  0.0000E+00  0.0000E+00  0.0000E+00  0.0000E+00  0.0000E+00  0.0000E+00  0.0000E+00  0.0000E+00  0.0000E+00  0.0000E+00
REACH   14        0     2  0.4059E+03  0.4698E-05  0.0000E+00  0.0000E+00  0.4698E-05  0.1450E-06  0.0000E+00  0.0000E+00  0.1177E+01  0.0000E+00  0.2354E+01  0.0000E+00  0.3532E+01  0.0000E+00  0.0000E+00  0.0000E+00  0.0000E+00  0.0000E+00  0.3532E+01  0.0000E+00  0.0000E+00  0.0000E+00  0.0000E+00  0.0000E+00  0.0000E+00  0.0000E+00  0.0000E+00  0.0000E+00  0.0000E+00  0.0000E+00  0.0000E+00  0.0000E+00  0.0000E+00  0.0000E+00  0.0000E+00  0.0000E+00  0.0000E+00  0.0000E+00  0.0000E+00  0.0000E+00  0.0000E+00  0.0000E+00  0.0000E+00
REACH   15        0     2  0.7799E+04  0.2539E-06  0.0000E+00  0.0000E+00  0.2539E-06  0.2750E-06  0.0000E+00  0.0000E+00  0.2710E-01  0.0000E+00  0.5420E-01  0.0000E+00  0.8130E-01  0.0000E+00  0.0000E+00  0.0000E+00  0.0000E+00  0.0000E+00  0.8130E-01  0.0000E+00  0.0000E+00  0.0000E+00  0.0000E+00  0.0000E+00  0.0000E+00  0.0000E+00  0.0000E+00  0.0000E+00  0.0000E+00  0.0000E+00  0.0000E+00  0.0000E+00  0.0000E+00  0.0000E+00  0.0000E+00  0.0000E+00  0.0000E+00  0.0000E+00  0.0000E+00  0.0000E+00  0.0000E+00  0.0000E+00  0.0000E+00
REACH   16        0     2  0.1961E+03  0.2270E-05  0.8254E-07  0.0000E+00  0.2270E-05  0.1740E-06  0.7200E-07  0.7277E-01  0.5688E+00  0.0000E+00  0.1138E+01  0.0000E+00  0.1707E+01  0.0000E+00  0.0000E+00  0.0000E+00  0.0000E+00  0.0000E+00  0.1707E+01  0.0000E+00  0.0000E+00  0.0000E+00  0.0000E+00  0.0000E+00  0.0000E+00  0.0000E+00  0.0000E+00  0.0000E+00  0.0000E+00  0.0000E+00  0.0000E+00  0.0000E+00  0.0000E+00  0.0000E+00  0.0000E+00  0.0000E+00  0.0000E+00  0.0000E+00  0.0000E+00  0.0000E+00  0.0000E+00  0.0000E+00  0.0000E+00
REACH   17        0     2  0.7593E+04  0.2598E-05  0.6318E-07  0.0000E+00  0.2598E-05  0.2270E-06  0.0000E+00  0.0000E+00  0.6178E+00  0.0000E+00  0.1236E+01  0.0000E+00  0.1853E+01  0.0000E+00  0.0000E+00  0.0000E+00  0.0000E+00  0.0000E+00  0.1853E+01  0.0000E+00  0.0000E+00  0.0000E+00  0.0000E+00  0.0000E+00  0.0000E+00  0.0000E+00  0.0000E+00  0.0000E+00  0.0000E+00  0.0000E+00  0.0000E+00  0.0000E+00  0.0000E+00  0.0000E+00  0.0000E+00  0.0000E+00  0.0000E+00  0.0000E+00  0.0000E+00  0.0000E+00  0.0000E+00  0.0000E+00  0.0000E+00
REACH   18        0     2  0.7187E+04  0.2058E-05  0.5155E-07  0.0000E+00  0.2058E-05  0.3200E-06  0.0000E+00  0.0000E+00  0.4713E+00  0.0000E+00  0.9426E+00  0.0000E+00  0.1414E+01  0.0000E+00  0.0000E+00  0.0000E+00  0.0000E+00  0.0000E+00  0.1414E+01  0.0000E+00  0.0000E+00  0.0000E+00  0.0000E+00  0.0000E+00  0.0000E+00  0.0000E+00  0.0000E+00  0.0000E+00  0.0000E+00  0.0000E+00  0.0000E+00  0.0000E+00  0.0000E+00  0.0000E+00  0.0000E+00  0.0000E+00  0.0000E+00  0.0000E+00  0.0000E+00  0.0000E+00  0.0000E+00  0.0000E+00  0.0000E+00
REACH   19        0     2  0.6844E+04  0.1537E-05  0.6996E-07  0.0000E+00  0.1537E-05  0.1650E-06  0.0000E+00  0.0000E+00  0.3281E+00  0.0000E+00  0.6562E+00  0.0000E+00  0.9843E+00  0.0000E+00  0.0000E+00  0.0000E+00  0.0000E+00  0.0000E+00  0.9843E+00  0.0000E+00  0.0000E+00  0.0000E+00  0.0000E+00  0.0000E+00  0.0000E+00  0.0000E+00  0.0000E+00  0.0000E+00  0.0000E+00  0.0000E+00  0.0000E+00  0.0000E+00  0.0000E+00  0.0000E+00  0.0000E+00  0.0000E+00  0.0000E+00  0.0000E+00  0.0000E+00  0.0000E+00  0.0000E+00  0.0000E+00  0.0000E+00
REACH   20        0     2  0.1810E+03  0.2094E-05  0.1072E-06  0.0000E+00  0.2094E-05  0.2900E-06  0.1300E-06  0.1392E+00  0.5248E+00  0.0000E+00  0.1050E+01  0.0000E+00  0.1574E+01  0.0000E+00  0.0000E+00  0.0000E+00  0.0000E+00  0.0000E+00  0.1574E+01  0.0000E+00  0.0000E+00  0.0000E+00  0.0000E+00  0.0000E+00  0.0000E+00  0.0000E+00  0.0000E+00  0.0000E+00  0.0000E+00  0.0000E+00  0.0000E+00  0.0000E+00  0.0000E+00  0.0000E+00  0.0000E+00  0.0000E+00  0.0000E+00  0.0000E+00  0.0000E+00  0.0000E+00  0.0000E+00  0.0000E+00  0.0000E+00
REACH   21        0     2  0.1930E+03  0.2234E-05  0.8123E-07  0.0000E+00  0.2234E-05  0.1450E-06  0.6000E-07  0.6162E-01  0.5598E+00  0.0000E+00  0.1120E+01  0.0000E+00  0.1679E+01  0.0000E+00  0.0000E+00  0.0000E+00  0.0000E+00  0.0000E+00  0.1679E+01  0.0000E+00  0.0000E+00  0.0000E+00  0.0000E+00  0.0000E+00  0.0000E+00  0.0000E+00  0.0000E+00  0.0000E+00  0.0000E+00  0.0000E+00  0.0000E+00  0.0000E+00  0.0000E+00  0.0000E+00  0.0000E+00  0.0000E+00  0.0000E+00  0.0000E+00  0.0000E+00  0.0000E+00  0.0000E+00  0.0000E+00  0.0000E+00
REACH   22        0     2  0.2531E+03  0.2929E-05  0.1065E-06  0.0000E+00  0.2929E-05  0.3190E-06  0.1320E-06  0.1034E+00  0.7341E+00  0.0000E+00  0.1468E+01  0.0000E+00  0.2202E+01  0.0000E+00  0.0000E+00  0.0000E+00  0.0000E+00  0.0000E+00  0.2202E+01  0.0000E+00  0.0000E+00  0.0000E+00  0.0000E+00  0.0000E+00  0.0000E+00  0.0000E+00  0.0000E+00  0.0000E+00  0.0000E+00  0.0000E+00  0.0000E+00  0.0000E+00  0.0000E+00  0.0000E+00  0.0000E+00  0.0000E+00  0.0000E+00  0.0000E+00  0.0000E+00  0.0000E+00  0.0000E+00  0.0000E+00  0.0000E+00
REACH   23        0     2  0.6477E+04  0.4996E-05  0.1207E-06  0.0000E+00  0.4996E-05  0.1300E-06  0.0000E+00  0.0000E+00  0.1207E+01  0.0000E+00  0.2413E+01  0.0000E+00  0.3620E+01  0.0000E+00  0.0000E+00  0.0000E+00  0.0000E+00  0.0000E+00  0.3620E+01  0.0000E+00  0.0000E+00  0.0000E+00  0.0000E+00  0.0000E+00  0.0000E+00  0.0000E+00  0.0000E+00  0.0000E+00  0.0000E+00  0.0000E+00  0.0000E+00  0.0000E+00  0.0000E+00  0.0000E+00  0.0000E+00  0.0000E+00  0.0000E+00  0.0000E+00  0.0000E+00  0.0000E+00  0.0000E+00  0.0000E+00  0.0000E+00
REACH   24        0     2  0.1506E+03  0.1743E-05  0.9569E-07  0.0000E+00  0.1743E-05  0.3190E-06  0.1430E-06  0.1703E+00  0.4367E+00  0.0000E+00  0.8734E+00  0.0000E+00  0.1310E+01  0.0000E+00  0.0000E+00  0.0000E+00  0.0000E+00  0.0000E+00  0.1310E+01  0.0000E+00  0.0000E+00  0.0000E+00  0.0000E+00  0.0000E+00  0.0000E+00  0.0000E+00  0.0000E+00  0.0000E+00  0.0000E+00  0.0000E+00  0.0000E+00  0.0000E+00  0.0000E+00  0.0000E+00  0.0000E+00  0.0000E+00  0.0000E+00  0.0000E+00  0.0000E+00  0.0000E+00  0.0000E+00  0.0000E+00  0.0000E+00
REACH   25        0     2  0.5911E+04  0.3427E-05  0.8550E-07  0.0000E+00  0.3427E-05  0.1080E-06  0.0000E+00  0.0000E+00  0.7981E+00  0.0000E+00  0.1596E+01  0.0000E+00  0.2394E+01  0.0000E+00  0.0000E+00  0.0000E+00  0.0000E+00  0.0000E+00  0.2394E+01  0.0000E+00  0.0000E+00  0.0000E+00  0.0000E+00  0.0000E+00  0.0000E+00  0.0000E+00  0.0000E+00  0.0000E+00  0.0000E+00  0.0000E+00  0.0000E+00  0.0000E+00  0.0000E+00  0.0000E+00  0.0000E+00  0.0000E+00  0.0000E+00  0.0000E+00  0.0000E+00  0.0000E+00  0.0000E+00  0.0000E+00  0.0000E+00
REACH   26        0     2  0.4609E+04  0.5924E-05  0.1809E-06  0.0000E+00  0.5924E-05  0.1530E-06  0.0000E+00  0.0000E+00  0.1443E+01  0.0000E+00  0.2887E+01  0.0000E+00  0.4330E+01  0.0000E+00  0.0000E+00  0.0000E+00  0.0000E+00  0.0000E+00  0.4330E+01  0.0000E+00  0.0000E+00  0.0000E+00  0.0000E+00  0.0000E+00  0.0000E+00  0.0000E+00  0.0000E+00  0.0000E+00  0.0000E+00  0.0000E+00  0.0000E+00  0.0000E+00  0.0000E+00  0.0000E+00  0.0000E+00  0.0000E+00  0.0000E+00  0.0000E+00  0.0000E+00  0.0000E+00  0.0000E+00  0.0000E+00  0.0000E+00
REACH   27        0     2  0.3778E+03  0.4363E-05  0.1426E-06  0.0000E+00  0.4363E-05  0.1159E-06  0.3995E-07  0.6072E-01  0.1096E+01  0.0000E+00  0.2192E+01  0.0000E+00  0.3287E+01  0.0000E+00  0.0000E+00  0.0000E+00  0.0000E+00  0.0000E+00  0.3287E+01  0.0000E+00  0.0000E+00  0.0000E+00  0.0000E+00  0.0000E+00  0.0000E+00  0.0000E+00  0.0000E+00  0.0000E+00  0.0000E+00  0.0000E+00  0.0000E+00  0.0000E+00  0.0000E+00  0.0000E+00  0.0000E+00  0.0000E+00  0.0000E+00  0.0000E+00  0.0000E+00  0.0000E+00  0.0000E+00  0.0000E+00  0.0000E+00
REACH   28        0     2  0.1027E+04  0.2344E-05  0.6070E-07  0.0000E+00  0.2344E-05  0.3260E-06  0.0000E+00  0.0000E+00  0.5014E+00  0.0000E+00  0.1003E+01  0.0000E+00  0.1504E+01  0.0000E+00  0.0000E+00  0.0000E+00  0.0000E+00  0.0000E+00  0.1504E+01  0.0000E+00  0.0000E+00  0.0000E+00  0.0000E+00  0.0000E+00  0.0000E+00  0.0000E+00  0.0000E+00  0.0000E+00  0.0000E+00  0.0000E+00  0.0000E+00  0.0000E+00  0.0000E+00  0.0000E+00  0.0000E+00  0.0000E+00  0.0000E+00  0.0000E+00  0.0000E+00  0.0000E+00  0.0000E+00  0.0000E+00  0.0000E+00
REACH   29        0     2  0.3915E+04  0.3199E-05  0.8183E-07  0.0000E+00  0.3199E-05  0.9798E-07  0.0000E+00  0.0000E+00  0.7289E+00  0.0000E+00  0.1458E+01  0.0000E+00  0.2187E+01  0.0000E+00  0.0000E+00  0.0000E+00  0.0000E+00  0.0000E+00  0.2187E+01  0.0000E+00  0.0000E+00  0.0000E+00  0.0000E+00  0.0000E+00  0.0000E+00  0.0000E+00  0.0000E+00  0.0000E+00  0.0000E+00  0.0000E+00  0.0000E+00  0.0000E+00  0.0000E+00  0.0000E+00  0.0000E+00  0.0000E+00  0.0000E+00  0.0000E+00  0.0000E+00  0.0000E+00  0.0000E+00  0.0000E+00  0.0000E+00
REACH   30        0     2  0.1959E+03  0.2267E-05  0.8244E-07  0.0000E+00  0.2267E-05  0.1740E-06  0.7200E-07  0.7285E-01  0.5682E+00  0.0000E+00  0.1136E+01  0.0000E+00  0.1705E+01  0.0000E+00  0.0000E+00  0.0000E+00  0.0000E+00  0.0000E+00  0.1705E+01  0.0000E+00  0.0000E+00  0.0000E+00  0.0000E+00  0.0000E+00  0.0000E+00  0.0000E+00  0.0000E+00  0.0000E+00  0.0000E+00  0.0000E+00  0.0000E+00  0.0000E+00  0.0000E+00  0.0000E+00  0.0000E+00  0.0000E+00  0.0000E+00  0.0000E+00  0.0000E+00  0.0000E+00  0.0000E+00  0.0000E+00  0.0000E+00
REACH   31        0     2  0.4764E+03  0.5512E-05  0.2004E-06  0.0000E+00  0.5512E-05  0.1450E-06  0.5999E-07  0.7535E-01  0.1382E+01  0.0000E+00  0.2763E+01  0.0000E+00  0.4145E+01  0.0000E+00  0.0000E+00  0.0000E+00  0.0000E+00  0.0000E+00  0.4145E+01  0.0000E+00  0.0000E+00  0.0000E+00  0.0000E+00  0.0000E+00  0.0000E+00  0.0000E+00  0.0000E+00  0.0000E+00  0.0000E+00  0.0000E+00  0.0000E+00  0.0000E+00  0.0000E+00  0.0000E+00  0.0000E+00  0.0000E+00  0.0000E+00  0.0000E+00  0.0000E+00  0.0000E+00  0.0000E+00  0.0000E+00  0.0000E+00
REACH   32        0     2  0.3369E+04  0.6928E-05  0.1674E-06  0.0000E+00  0.6928E-05  0.1347E-06  0.0000E+00  0.0000E+00  0.1679E+01  0.0000E+00  0.3357E+01  0.0000E+00  0.5036E+01  0.0000E+00  0.0000E+00  0.0000E+00  0.0000E+00  0.0000E+00  0.5036E+01  0.0000E+00  0.0000E+00  0.0000E+00  0.0000E+00  0.0000E+00  0.0000E+00  0.0000E+00  0.0000E+00  0.0000E+00  0.0000E+00  0.0000E+00  0.0000E+00  0.0000E+00  0.0000E+00  0.0000E+00  0.0000E+00  0.0000E+00  0.0000E+00  0.0000E+00  0.0000E+00  0.0000E+00  0.0000E+00  0.0000E+00  0.0000E+00
REACH   33        0     2  0.2952E+03  0.3417E-05  0.1242E-06  0.0000E+00  0.3417E-05  0.2320E-06  0.9600E-07  0.1945E+00  0.8561E+00  0.0000E+00  0.1712E+01  0.0000E+00  0.2568E+01  0.0000E+00  0.0000E+00  0.0000E+00  0.0000E+00  0.0000E+00  0.2568E+01  0.0000E+00  0.0000E+00  0.0000E+00  0.0000E+00  0.0000E+00  0.0000E+00  0.0000E+00  0.0000E+00  0.0000E+00  0.0000E+00  0.0000E+00  0.0000E+00  0.0000E+00  0.0000E+00  0.0000E+00  0.0000E+00  0.0000E+00  0.0000E+00  0.0000E+00  0.0000E+00  0.0000E+00  0.0000E+00  0.0000E+00  0.0000E+00
REACH   34        0     2  0.2200E+03  0.2547E-05  0.9259E-07  0.0000E+00  0.2547E-05  0.2610E-06  0.1080E-06  0.9730E-01  0.6382E+00  0.0000E+00  0.1276E+01  0.0000E+00  0.1915E+01  0.0000E+00  0.0000E+00  0.0000E+00  0.0000E+00  0.0000E+00  0.1915E+01  0.0000E+00  0.0000E+00  0.0000E+00  0.0000E+00  0.0000E+00  0.0000E+00  0.0000E+00  0.0000E+00  0.0000E+00  0.0000E+00  0.0000E+00  0.0000E+00  0.0000E+00  0.0000E+00  0.0000E+00  0.0000E+00  0.0000E+00  0.0000E+00  0.0000E+00  0.0000E+00  0.0000E+00  0.0000E+00  0.0000E+00  0.0000E+00
REACH   35        0     2  0.2570E+04  0.7734E-05  0.1930E-06  0.0000E+00  0.7734E-05  0.1186E-06  0.0000E+00  0.0000E+00  0.1932E+01  0.0000E+00  0.3864E+01  0.0000E+00  0.5796E+01  0.0000E+00  0.0000E+00  0.0000E+00  0.0000E+00  0.0000E+00  0.5796E+01  0.0000E+00  0.0000E+00  0.0000E+00  0.0000E+00  0.0000E+00  0.0000E+00  0.0000E+00  0.0000E+00  0.0000E+00  0.0000E+00  0.0000E+00  0.0000E+00  0.0000E+00  0.0000E+00  0.0000E+00  0.0000E+00  0.0000E+00  0.0000E+00  0.0000E+00  0.0000E+00  0.0000E+00  0.0000E+00  0.0000E+00  0.0000E+00
REACH   36        0     2  0.1912E+03  0.2171E-05  0.7546E-07  0.0000E+00  0.2171E-05  0.8630E-07  0.3571E-07  0.3839E-01  0.5546E+00  0.0000E+00  0.1109E+01  0.0000E+00  0.1664E+01  0.0000E+00  0.0000E+00  0.0000E+00  0.0000E+00  0.0000E+00  0.1664E+01  0.0000E+00  0.0000E+00  0.0000E+00  0.0000E+00  0.0000E+00  0.0000E+00  0.0000E+00  0.0000E+00  0.0000E+00  0.0000E+00  0.0000E+00  0.0000E+00  0.0000E+00  0.0000E+00  0.0000E+00  0.0000E+00  0.0000E+00  0.0000E+00  0.0000E+00  0.0000E+00  0.0000E+00  0.0000E+00  0.0000E+00  0.0000E+00
REACH   37        0     2  0.1712E+04  0.2921E-06  0.3575E-07  0.0000E+00  0.2921E-06  0.1057E-06  0.0000E+00  0.0000E+00  0.2101E-02  0.0000E+00  0.4202E-02  0.0000E+00  0.6304E-02  0.0000E+00  0.0000E+00  0.0000E+00  0.0000E+00  0.0000E+00  0.6304E-02  0.0000E+00  0.0000E+00  0.0000E+00  0.0000E+00  0.0000E+00  0.0000E+00  0.0000E+00  0.0000E+00  0.0000E+00  0.0000E+00  0.0000E+00  0.0000E+00  0.0000E+00  0.0000E+00  0.0000E+00  0.0000E+00  0.0000E+00  0.0000E+00  0.0000E+00  0.0000E+00  0.0000E+00  0.0000E+00  0.0000E+00  0.0000E+00
REACH   38        0     2  0.1930E+03  0.2176E-05  0.7875E-07  0.0000E+00  0.2176E-05  0.1438E-06  0.5949E-07  0.6283E-01  0.5593E+00  0.0000E+00  0.1119E+01  0.0000E+00  0.1678E+01  0.0000E+00  0.0000E+00  0.0000E+00  0.0000E+00  0.0000E+00  0.1678E+01  0.0000E+00  0.0000E+00  0.0000E+00  0.0000E+00  0.0000E+00  0.0000E+00  0.0000E+00  0.0000E+00  0.0000E+00  0.0000E+00  0.0000E+00  0.0000E+00  0.0000E+00  0.0000E+00  0.0000E+00  0.0000E+00  0.0000E+00  0.0000E+00  0.0000E+00  0.0000E+00  0.0000E+00  0.0000E+00  0.0000E+00  0.0000E+00
REACH   39        0     2  0.1479E+04  0.6130E-05  0.1862E-06  0.0000E+00  0.6130E-05  0.1018E-06  0.0000E+00  0.0000E+00  0.1452E+01  0.0000E+00  0.2904E+01  0.0000E+00  0.4356E+01  0.0000E+00  0.0000E+00  0.0000E+00  0.0000E+00  0.0000E+00  0.4356E+01  0.0000E+00  0.0000E+00  0.0000E+00  0.0000E+00  0.0000E+00  0.0000E+00  0.0000E+00  0.0000E+00  0.0000E+00  0.0000E+00  0.0000E+00  0.0000E+00  0.0000E+00  0.0000E+00  0.0000E+00  0.0000E+00  0.0000E+00  0.0000E+00  0.0000E+00  0.0000E+00  0.0000E+00  0.0000E+00  0.0000E+00  0.0000E+00
REACH   40        0     2  0.7850E+03  0.8904E-05  0.2771E-06  0.0000E+00  0.8904E-05  0.1725E-06  0.7137E-07  0.5694E-01  0.2276E+01  0.0000E+00  0.4552E+01  0.0000E+00  0.6829E+01  0.0000E+00  0.0000E+00  0.0000E+00  0.0000E+00  0.0000E+00  0.6829E+01  0.0000E+00  0.0000E+00  0.0000E+00  0.0000E+00  0.0000E+00  0.0000E+00  0.0000E+00  0.0000E+00  0.0000E+00  0.0000E+00  0.0000E+00  0.0000E+00  0.0000E+00  0.0000E+00  0.0000E+00  0.0000E+00  0.0000E+00  0.0000E+00  0.0000E+00  0.0000E+00  0.0000E+00  0.0000E+00  0.0000E+00  0.0000E+00
REACH   41        0     2  0.2326E+03  0.2684E-05  0.9758E-07  0.0000E+00  0.2684E-05  0.2027E-06  0.8386E-07  0.7169E-01  0.6744E+00  0.0000E+00  0.1349E+01  0.0000E+00  0.2023E+01  0.0000E+00  0.0000E+00  0.0000E+00  0.0000E+00  0.0000E+00  0.2023E+01  0.0000E+00  0.0000E+00  0.0000E+00  0.0000E+00  0.0000E+00  0.0000E+00  0.0000E+00  0.0000E+00  0.0000E+00  0.0000E+00  0.0000E+00  0.0000E+00  0.0000E+00  0.0000E+00  0.0000E+00  0.0000E+00  0.0000E+00  0.0000E+00  0.0000E+00  0.0000E+00  0.0000E+00  0.0000E+00  0.0000E+00  0.0000E+00
REACH    1        0     3  0.1105E+05  0.1064E-05  0.0000E+00  0.0000E+00  0.1064E-05  0.9283E-07  0.0000E+00  0.0000E+00  0.2859E+00  0.0000E+00  0.5719E+00  0.0000E+00  0.8578E+00  0.0000E+00  0.0000E+00  0.0000E+00  0.0000E+00  0.0000E+00  0.8578E+00  0.0000E+00  0.0000E+00  0.0000E+00  0.0000E+00  0.0000E+00  0.0000E+00  0.0000E+00  0.0000E+00  0.0000E+00  0.0000E+00  0.0000E+00  0.0000E+00  0.0000E+00  0.0000E+00  0.0000E+00  0.0000E+00  0.0000E+00  0.0000E+00  0.0000E+00  0.0000E+00  0.0000E+00  0.0000E+00  0.0000E+00  0.0000E+00
REACH    2        0     3  0.2330E+03  0.2692E-05  0.0000E+00  0.0000E+00  0.2692E-05  0.2478E-06  0.0000E+00  0.0000E+00  0.7219E+00  0.0000E+00  0.1444E+01  0.0000E+00  0.2166E+01  0.0000E+00  0.0000E+00  0.0000E+00  0.0000E+00  0.0000E+00  0.2166E+01  0.0000E+00  0.0000E+00  0.0000E+00  0.0000E+00  0.0000E+00  0.0000E+00  0.0000E+00  0.0000E+00  0.0000E+00  0.0000E+00  0.0000E+00  0.0000E+00  0.0000E+00  0.0000E+00  0.0000E+00  0.0000E+00  0.0000E+00  0.0000E+00  0.0000E+00  0.0000E+00  0.0000E+00  0.0000E+00  0.0000E+00  0.0000E+00
REACH    3        0     3  0.1073E+05  0.4402E-05  0.0000E+00  0.0000E+00  0.4402E-05  0.2790E-06  0.0000E+00  0.0000E+00  0.1179E+01  0.0000E+00  0.2358E+01  0.0000E+00  0.3538E+01  0.0000E+00  0.0000E+00  0.0000E+00  0.0000E+00  0.0000E+00  0.3538E+01  0.0000E+00  0.0000E+00  0.0000E+00  0.0000E+00  0.0000E+00  0.0000E+00  0.0000E+00  0.0000E+00  0.0000E+00  0.0000E+00  0.0000E+00  0.0000E+00  0.0000E+00  0.0000E+00  0.0000E+00  0.0000E+00  0.0000E+00  0.0000E+00  0.0000E+00  0.0000E+00  0.0000E+00  0.0000E+00  0.0000E+00  0.0000E+00
REACH    4        0     3  0.9239E+04  0.1760E-06  0.0000E+00  0.0000E+00  0.1760E-06  0.9300E-07  0.0000E+00  0.0000E+00  0.4715E-01  0.0000E+00  0.9430E-01  0.0000E+00  0.1414E+00  0.0000E+00  0.0000E+00  0.0000E+00  0.0000E+00  0.0000E+00  0.1414E+00  0.0000E+00  0.0000E+00  0.0000E+00  0.0000E+00  0.0000E+00  0.0000E+00  0.0000E+00  0.0000E+00  0.0000E+00  0.0000E+00  0.0000E+00  0.0000E+00  0.0000E+00  0.0000E+00  0.0000E+00  0.0000E+00  0.0000E+00  0.0000E+00  0.0000E+00  0.0000E+00  0.0000E+00  0.0000E+00  0.0000E+00  0.0000E+00
REACH    5        0     3  0.2104E+03  0.2434E-05  0.0000E+00  0.0000E+00  0.2434E-05  0.9294E-07  0.0000E+00  0.0000E+00  0.6524E+00  0.0000E+00  0.1305E+01  0.0000E+00  0.1957E+01  0.0000E+00  0.0000E+00  0.0000E+00  0.0000E+00  0.0000E+00  0.1957E+01  0.0000E+00  0.0000E+00  0.0000E+00  0.0000E+00  0.0000E+00  0.0000E+00  0.0000E+00  0.0000E+00  0.0000E+00  0.0000E+00  0.0000E+00  0.0000E+00  0.0000E+00  0.0000E+00  0.0000E+00  0.0000E+00  0.0000E+00  0.0000E+00  0.0000E+00  0.0000E+00  0.0000E+00  0.0000E+00  0.0000E+00  0.0000E+00
REACH    6        0     3  0.1106E+04  0.7584E-06  0.0000E+00  0.0000E+00  0.7584E-06  0.1550E-06  0.0000E+00  0.0000E+00  0.2031E+00  0.0000E+00  0.4063E+00  0.0000E+00  0.6094E+00  0.0000E+00  0.0000E+00  0.0000E+00  0.0000E+00  0.0000E+00  0.6094E+00  0.0000E+00  0.0000E+00  0.0000E+00  0.0000E+00  0.0000E+00  0.0000E+00  0.0000E+00  0.0000E+00  0.0000E+00  0.0000E+00  0.0000E+00  0.0000E+00  0.0000E+00  0.0000E+00  0.0000E+00  0.0000E+00  0.0000E+00  0.0000E+00  0.0000E+00  0.0000E+00  0.0000E+00  0.0000E+00  0.0000E+00  0.0000E+00
REACH    7        0     3  0.4338E+03  0.5004E-05  0.0000E+00  0.0000E+00  0.5004E-05  0.9271E-07  0.0000E+00  0.0000E+00  0.1345E+01  0.0000E+00  0.2690E+01  0.0000E+00  0.4035E+01  0.0000E+00  0.0000E+00  0.0000E+00  0.0000E+00  0.0000E+00  0.4035E+01  0.0000E+00  0.0000E+00  0.0000E+00  0.0000E+00  0.0000E+00  0.0000E+00  0.0000E+00  0.0000E+00  0.0000E+00  0.0000E+00  0.0000E+00  0.0000E+00  0.0000E+00  0.0000E+00  0.0000E+00  0.0000E+00  0.0000E+00  0.0000E+00  0.0000E+00  0.0000E+00  0.0000E+00  0.0000E+00  0.0000E+00  0.0000E+00
REACH    8        0     3  0.6069E+03  0.4762E-06  0.0000E+00  0.0000E+00  0.4762E-06  0.1240E-06  0.0000E+00  0.0000E+00  0.1276E+00  0.0000E+00  0.2551E+00  0.0000E+00  0.3827E+00  0.0000E+00  0.0000E+00  0.0000E+00  0.0000E+00  0.0000E+00  0.3827E+00  0.0000E+00  0.0000E+00  0.0000E+00  0.0000E+00  0.0000E+00  0.0000E+00  0.0000E+00  0.0000E+00  0.0000E+00  0.0000E+00  0.0000E+00  0.0000E+00  0.0000E+00  0.0000E+00  0.0000E+00  0.0000E+00  0.0000E+00  0.0000E+00  0.0000E+00  0.0000E+00  0.0000E+00  0.0000E+00  0.0000E+00  0.0000E+00
REACH    9        0     3  0.1884E+03  0.2175E-05  0.0000E+00  0.0000E+00  0.2175E-05  0.6186E-07  0.0000E+00  0.0000E+00  0.5842E+00  0.0000E+00  0.1168E+01  0.0000E+00  0.1753E+01  0.0000E+00  0.0000E+00  0.0000E+00  0.0000E+00  0.0000E+00  0.1753E+01  0.0000E+00  0.0000E+00  0.0000E+00  0.0000E+00  0.0000E+00  0.0000E+00  0.0000E+00  0.0000E+00  0.0000E+00  0.0000E+00  0.0000E+00  0.0000E+00  0.0000E+00  0.0000E+00  0.0000E+00  0.0000E+00  0.0000E+00  0.0000E+00  0.0000E+00  0.0000E+00  0.0000E+00  0.0000E+00  0.0000E+00  0.0000E+00
REACH   10        0     3  0.9013E+04  0.5108E-05  0.0000E+00  0.0000E+00  0.5108E-05  0.1860E-06  0.0000E+00  0.0000E+00  0.1369E+01  0.0000E+00  0.2737E+01  0.0000E+00  0.4106E+01  0.0000E+00  0.0000E+00  0.0000E+00  0.0000E+00  0.0000E+00  0.4106E+01  0.0000E+00  0.0000E+00  0.0000E+00  0.0000E+00  0.0000E+00  0.0000E+00  0.0000E+00  0.0000E+00  0.0000E+00  0.0000E+00  0.0000E+00  0.0000E+00  0.0000E+00  0.0000E+00  0.0000E+00  0.0000E+00  0.0000E+00  0.0000E+00  0.0000E+00  0.0000E+00  0.0000E+00  0.0000E+00  0.0000E+00  0.0000E+00
REACH   11        0     3  0.2665E+03  0.3081E-05  0.0000E+00  0.0000E+00  0.3081E-05  0.6193E-07  0.0000E+00  0.0000E+00  0.8263E+00  0.0000E+00  0.1653E+01  0.0000E+00  0.2479E+01  0.0000E+00  0.0000E+00  0.0000E+00  0.0000E+00  0.0000E+00  0.2479E+01  0.0000E+00  0.0000E+00  0.0000E+00  0.0000E+00  0.0000E+00  0.0000E+00  0.0000E+00  0.0000E+00  0.0000E+00  0.0000E+00  0.0000E+00  0.0000E+00  0.0000E+00  0.0000E+00  0.0000E+00  0.0000E+00  0.0000E+00  0.0000E+00  0.0000E+00  0.0000E+00  0.0000E+00  0.0000E+00  0.0000E+00  0.0000E+00
REACH   12        0     3  0.3773E+03  0.4361E-05  0.0000E+00  0.0000E+00  0.4361E-05  0.1549E-06  0.0000E+00  0.0000E+00  0.1170E+01  0.0000E+00  0.2340E+01  0.0000E+00  0.3509E+01  0.0000E+00  0.0000E+00  0.0000E+00  0.0000E+00  0.0000E+00  0.3509E+01  0.0000E+00  0.0000E+00  0.0000E+00  0.0000E+00  0.0000E+00  0.0000E+00  0.0000E+00  0.0000E+00  0.0000E+00  0.0000E+00  0.0000E+00  0.0000E+00  0.0000E+00  0.0000E+00  0.0000E+00  0.0000E+00  0.0000E+00  0.0000E+00  0.0000E+00  0.0000E+00  0.0000E+00  0.0000E+00  0.0000E+00  0.0000E+00
REACH   13        0     3  0.8305E+04  0.1163E-05  0.0000E+00  0.0000E+00  0.1163E-05  0.6200E-07  0.0000E+00  0.0000E+00  0.3115E+00  0.0000E+00  0.6230E+00  0.0000E+00  0.9344E+00  0.0000E+00  0.0000E+00  0.0000E+00  0.0000E+00  0.0000E+00  0.9344E+00  0.0000E+00  0.0000E+00  0.0000E+00  0.0000E+00  0.0000E+00  0.0000E+00  0.0000E+00  0.0000E+00  0.0000E+00  0.0000E+00  0.0000E+00  0.0000E+00  0.0000E+00  0.0000E+00  0.0000E+00  0.0000E+00  0.0000E+00  0.0000E+00  0.0000E+00  0.0000E+00  0.0000E+00  0.0000E+00  0.0000E+00  0.0000E+00
REACH   14        0     3  0.4059E+03  0.4698E-05  0.0000E+00  0.0000E+00  0.4698E-05  0.1550E-06  0.0000E+00  0.0000E+00  0.1258E+01  0.0000E+00  0.2517E+01  0.0000E+00  0.3775E+01  0.0000E+00  0.0000E+00  0.0000E+00  0.0000E+00  0.0000E+00  0.3775E+01  0.0000E+00  0.0000E+00  0.0000E+00  0.0000E+00  0.0000E+00  0.0000E+00  0.0000E+00  0.0000E+00  0.0000E+00  0.0000E+00  0.0000E+00  0.0000E+00  0.0000E+00  0.0000E+00  0.0000E+00  0.0000E+00  0.0000E+00  0.0000E+00  0.0000E+00  0.0000E+00  0.0000E+00  0.0000E+00  0.0000E+00  0.0000E+00
REACH   15        0     3  0.7799E+04  0.1195E-06  0.0000E+00  0.0000E+00  0.1195E-06  0.2290E-06  0.0000E+00  0.0000E+00  0.2897E-01  0.0000E+00  0.5794E-01  0.0000E+00  0.8690E-01  0.0000E+00  0.0000E+00  0.0000E+00  0.0000E+00  0.0000E+00  0.8690E-01  0.0000E+00  0.0000E+00  0.0000E+00  0.0000E+00  0.0000E+00  0.0000E+00  0.0000E+00  0.0000E+00  0.0000E+00  0.0000E+00  0.0000E+00  0.0000E+00  0.0000E+00  0.0000E+00  0.0000E+00  0.0000E+00  0.0000E+00  0.0000E+00  0.0000E+00  0.0000E+00  0.0000E+00  0.0000E+00  0.0000E+00  0.0000E+00
REACH   16        0     3  0.1961E+03  0.2270E-05  0.5261E-08  0.0000E+00  0.2270E-05  0.1860E-06  0.1200E-07  0.0000E+00  0.6081E+00  0.0000E+00  0.1216E+01  0.0000E+00  0.1824E+01  0.0000E+00  0.0000E+00  0.0000E+00  0.0000E+00  0.0000E+00  0.1824E+01  0.0000E+00  0.0000E+00  0.0000E+00  0.0000E+00  0.0000E+00  0.0000E+00  0.0000E+00  0.0000E+00  0.0000E+00  0.0000E+00  0.0000E+00  0.0000E+00  0.0000E+00  0.0000E+00  0.0000E+00  0.0000E+00  0.0000E+00  0.0000E+00  0.0000E+00  0.0000E+00  0.0000E+00  0.0000E+00  0.0000E+00  0.0000E+00
REACH   17        0     3  0.7593E+04  0.2475E-05  0.6067E-08  0.0000E+00  0.2475E-05  0.2580E-06  0.0000E+00  0.0000E+00  0.6604E+00  0.0000E+00  0.1321E+01  0.0000E+00  0.1981E+01  0.0000E+00  0.0000E+00  0.0000E+00  0.0000E+00  0.0000E+00  0.1981E+01  0.0000E+00  0.0000E+00  0.0000E+00  0.0000E+00  0.0000E+00  0.0000E+00  0.0000E+00  0.0000E+00  0.0000E+00  0.0000E+00  0.0000E+00  0.0000E+00  0.0000E+00  0.0000E+00  0.0000E+00  0.0000E+00  0.0000E+00  0.0000E+00  0.0000E+00  0.0000E+00  0.0000E+00  0.0000E+00  0.0000E+00  0.0000E+00
REACH   18        0     3  0.7187E+04  0.1891E-05  0.4666E-08  0.0000E+00  0.1891E-05  0.3400E-06  0.0000E+00  0.0000E+00  0.5038E+00  0.0000E+00  0.1008E+01  0.0000E+00  0.1511E+01  0.0000E+00  0.0000E+00  0.0000E+00  0.0000E+00  0.0000E+00  0.1511E+01  0.0000E+00  0.0000E+00  0.0000E+00  0.0000E+00  0.0000E+00  0.0000E+00  0.0000E+00  0.0000E+00  0.0000E+00  0.0000E+00  0.0000E+00  0.0000E+00  0.0000E+00  0.0000E+00  0.0000E+00  0.0000E+00  0.0000E+00  0.0000E+00  0.0000E+00  0.0000E+00  0.0000E+00  0.0000E+00  0.0000E+00  0.0000E+00
REACH   19        0     3  0.6844E+04  0.1328E-05  0.3692E-08  0.0000E+00  0.1328E-05  0.1770E-06  0.0000E+00  0.0000E+00  0.3507E+00  0.0000E+00  0.7014E+00  0.0000E+00  0.1052E+01  0.0000E+00  0.0000E+00  0.0000E+00  0.0000E+00  0.0000E+00  0.1052E+01  0.0000E+00  0.0000E+00  0.0000E+00  0.0000E+00  0.0000E+00  0.0000E+00  0.0000E+00  0.0000E+00  0.0000E+00  0.0000E+00  0.0000E+00  0.0000E+00  0.0000E+00  0.0000E+00  0.0000E+00  0.0000E+00  0.0000E+00  0.0000E+00  0.0000E+00  0.0000E+00  0.0000E+00  0.0000E+00  0.0000E+00  0.0000E+00
REACH   20        0     3  0.1810E+03  0.2094E-05  0.6635E-08  0.0000E+00  0.2094E-05  0.3100E-06  0.3000E-07  0.0000E+00  0.5610E+00  0.0000E+00  0.1122E+01  0.0000E+00  0.1683E+01  0.0000E+00  0.0000E+00  0.0000E+00  0.0000E+00  0.0000E+00  0.1683E+01  0.0000E+00  0.0000E+00  0.0000E+00  0.0000E+00  0.0000E+00  0.0000E+00  0.0000E+00  0.0000E+00  0.0000E+00  0.0000E+00  0.0000E+00  0.0000E+00  0.0000E+00  0.0000E+00  0.0000E+00  0.0000E+00  0.0000E+00  0.0000E+00  0.0000E+00  0.0000E+00  0.0000E+00  0.0000E+00  0.0000E+00  0.0000E+00
REACH   21        0     3  0.1930E+03  0.2234E-05  0.5178E-08  0.0000E+00  0.2234E-05  0.1550E-06  0.1000E-07  0.0000E+00  0.5984E+00  0.0000E+00  0.1197E+01  0.0000E+00  0.1795E+01  0.0000E+00  0.0000E+00  0.0000E+00  0.0000E+00  0.0000E+00  0.1795E+01  0.0000E+00  0.0000E+00  0.0000E+00  0.0000E+00  0.0000E+00  0.0000E+00  0.0000E+00  0.0000E+00  0.0000E+00  0.0000E+00  0.0000E+00  0.0000E+00  0.0000E+00  0.0000E+00  0.0000E+00  0.0000E+00  0.0000E+00  0.0000E+00  0.0000E+00  0.0000E+00  0.0000E+00  0.0000E+00  0.0000E+00  0.0000E+00
REACH   22        0     3  0.2531E+03  0.2929E-05  0.6790E-08  0.0000E+00  0.2929E-05  0.3410E-06  0.2200E-07  0.0000E+00  0.7847E+00  0.0000E+00  0.1569E+01  0.0000E+00  0.2354E+01  0.0000E+00  0.0000E+00  0.0000E+00  0.0000E+00  0.0000E+00  0.2354E+01  0.0000E+00  0.0000E+00  0.0000E+00  0.0000E+00  0.0000E+00  0.0000E+00  0.0000E+00  0.0000E+00  0.0000E+00  0.0000E+00  0.0000E+00  0.0000E+00  0.0000E+00  0.0000E+00  0.0000E+00  0.0000E+00  0.0000E+00  0.0000E+00  0.0000E+00  0.0000E+00  0.0000E+00  0.0000E+00  0.0000E+00  0.0000E+00
REACH   23        0     3  0.6477E+04  0.4825E-05  0.1151E-07  0.0000E+00  0.4825E-05  0.1740E-06  0.0000E+00  0.0000E+00  0.1290E+01  0.0000E+00  0.2580E+01  0.0000E+00  0.3869E+01  0.0000E+00  0.0000E+00  0.0000E+00  0.0000E+00  0.0000E+00  0.3869E+01  0.0000E+00  0.0000E+00  0.0000E+00  0.0000E+00  0.0000E+00  0.0000E+00  0.0000E+00  0.0000E+00  0.0000E+00  0.0000E+00  0.0000E+00  0.0000E+00  0.0000E+00  0.0000E+00  0.0000E+00  0.0000E+00  0.0000E+00  0.0000E+00  0.0000E+00  0.0000E+00  0.0000E+00  0.0000E+00  0.0000E+00  0.0000E+00
REACH   24        0     3  0.1506E+03  0.1743E-05  0.2020E-08  0.0000E+00  0.1743E-05  0.3410E-06  0.1100E-07  0.0000E+00  0.4668E+00  0.0000E+00  0.9337E+00  0.0000E+00  0.1400E+01  0.0000E+00  0.0000E+00  0.0000E+00  0.0000E+00  0.0000E+00  0.1400E+01  0.0000E+00  0.0000E+00  0.0000E+00  0.0000E+00  0.0000E+00  0.0000E+00  0.0000E+00  0.0000E+00  0.0000E+00  0.0000E+00  0.0000E+00  0.0000E+00  0.0000E+00  0.0000E+00  0.0000E+00  0.0000E+00  0.0000E+00  0.0000E+00  0.0000E+00  0.0000E+00  0.0000E+00  0.0000E+00  0.0000E+00  0.0000E+00
REACH   25        0     3  0.5911E+04  0.3194E-05  0.7705E-08  0.0000E+00  0.3194E-05  0.1800E-06  0.0000E+00  0.0000E+00  0.8532E+00  0.0000E+00  0.1706E+01  0.0000E+00  0.2560E+01  0.0000E+00  0.0000E+00  0.0000E+00  0.0000E+00  0.0000E+00  0.2560E+01  0.0000E+00  0.0000E+00  0.0000E+00  0.0000E+00  0.0000E+00  0.0000E+00  0.0000E+00  0.0000E+00  0.0000E+00  0.0000E+00  0.0000E+00  0.0000E+00  0.0000E+00  0.0000E+00  0.0000E+00  0.0000E+00  0.0000E+00  0.0000E+00  0.0000E+00  0.0000E+00  0.0000E+00  0.0000E+00  0.0000E+00  0.0000E+00
REACH   26        0     3  0.4609E+04  0.5764E-05  0.6675E-08  0.0000E+00  0.5764E-05  0.2700E-06  0.0000E+00  0.0000E+00  0.1543E+01  0.0000E+00  0.3086E+01  0.0000E+00  0.4629E+01  0.0000E+00  0.0000E+00  0.0000E+00  0.0000E+00  0.0000E+00  0.4629E+01  0.0000E+00  0.0000E+00  0.0000E+00  0.0000E+00  0.0000E+00  0.0000E+00  0.0000E+00  0.0000E+00  0.0000E+00  0.0000E+00  0.0000E+00  0.0000E+00  0.0000E+00  0.0000E+00  0.0000E+00  0.0000E+00  0.0000E+00  0.0000E+00  0.0000E+00  0.0000E+00  0.0000E+00  0.0000E+00  0.0000E+00  0.0000E+00
REACH   27        0     3  0.3778E+03  0.4363E-05  0.0000E+00  0.0000E+00  0.4363E-05  0.1238E-06  0.0000E+00  0.0000E+00  0.1171E+01  0.0000E+00  0.2343E+01  0.0000E+00  0.3514E+01  0.0000E+00  0.0000E+00  0.0000E+00  0.0000E+00  0.0000E+00  0.3514E+01  0.0000E+00  0.0000E+00  0.0000E+00  0.0000E+00  0.0000E+00  0.0000E+00  0.0000E+00  0.0000E+00  0.0000E+00  0.0000E+00  0.0000E+00  0.0000E+00  0.0000E+00  0.0000E+00  0.0000E+00  0.0000E+00  0.0000E+00  0.0000E+00  0.0000E+00  0.0000E+00  0.0000E+00  0.0000E+00  0.0000E+00  0.0000E+00
REACH   28        0     3  0.1027E+04  0.2001E-05  0.2319E-08  0.0000E+00  0.2001E-05  0.3720E-06  0.0000E+00  0.0000E+00  0.5359E+00  0.0000E+00  0.1072E+01  0.0000E+00  0.1608E+01  0.0000E+00  0.0000E+00  0.0000E+00  0.0000E+00  0.0000E+00  0.1608E+01  0.0000E+00  0.0000E+00  0.0000E+00  0.0000E+00  0.0000E+00  0.0000E+00  0.0000E+00  0.0000E+00  0.0000E+00  0.0000E+00  0.0000E+00  0.0000E+00  0.0000E+00  0.0000E+00  0.0000E+00  0.0000E+00  0.0000E+00  0.0000E+00  0.0000E+00  0.0000E+00  0.0000E+00  0.0000E+00  0.0000E+00  0.0000E+00
REACH   29        0     3  0.3915E+04  0.2915E-05  0.3646E-08  0.0000E+00  0.2915E-05  0.1550E-06  0.0000E+00  0.0000E+00  0.7791E+00  0.0000E+00  0.1558E+01  0.0000E+00  0.2337E+01  0.0000E+00  0.0000E+00  0.0000E+00  0.0000E+00  0.0000E+00  0.2337E+01  0.0000E+00  0.0000E+00  0.0000E+00  0.0000E+00  0.0000E+00  0.0000E+00  0.0000E+00  0.0000E+00  0.0000E+00  0.0000E+00  0.0000E+00  0.0000E+00  0.0000E+00  0.0000E+00  0.0000E+00  0.0000E+00  0.0000E+00  0.0000E+00  0.0000E+00  0.0000E+00  0.0000E+00  0.0000E+00  0.0000E+00  0.0000E+00
REACH   30        0     3  0.1959E+03  0.2267E-05  0.0000E+00  0.0000E+00  0.2267E-05  0.1860E-06  0.0000E+00  0.0000E+00  0.6074E+00  0.0000E+00  0.1215E+01  0.0000E+00  0.1822E+01  0.0000E+00  0.0000E+00  0.0000E+00  0.0000E+00  0.0000E+00  0.1822E+01  0.0000E+00  0.0000E+00  0.0000E+00  0.0000E+00  0.0000E+00  0.0000E+00  0.0000E+00  0.0000E+00  0.0000E+00  0.0000E+00  0.0000E+00  0.0000E+00  0.0000E+00  0.0000E+00  0.0000E+00  0.0000E+00  0.0000E+00  0.0000E+00  0.0000E+00  0.0000E+00  0.0000E+00  0.0000E+00  0.0000E+00  0.0000E+00
REACH   31        0     3  0.4764E+03  0.5512E-05  0.0000E+00  0.0000E+00  0.5512E-05  0.1550E-06  0.0000E+00  0.0000E+00  0.1477E+01  0.0000E+00  0.2954E+01  0.0000E+00  0.4431E+01  0.0000E+00  0.0000E+00  0.0000E+00  0.0000E+00  0.0000E+00  0.4431E+01  0.0000E+00  0.0000E+00  0.0000E+00  0.0000E+00  0.0000E+00  0.0000E+00  0.0000E+00  0.0000E+00  0.0000E+00  0.0000E+00  0.0000E+00  0.0000E+00  0.0000E+00  0.0000E+00  0.0000E+00  0.0000E+00  0.0000E+00  0.0000E+00  0.0000E+00  0.0000E+00  0.0000E+00  0.0000E+00  0.0000E+00  0.0000E+00
REACH   32        0     3  0.3369E+04  0.6642E-05  0.7697E-08  0.0000E+00  0.6642E-05  0.2095E-06  0.0000E+00  0.0000E+00  0.1794E+01  0.0000E+00  0.3589E+01  0.0000E+00  0.5383E+01  0.0000E+00  0.0000E+00  0.0000E+00  0.0000E+00  0.0000E+00  0.5383E+01  0.0000E+00  0.0000E+00  0.0000E+00  0.0000E+00  0.0000E+00  0.0000E+00  0.0000E+00  0.0000E+00  0.0000E+00  0.0000E+00  0.0000E+00  0.0000E+00  0.0000E+00  0.0000E+00  0.0000E+00  0.0000E+00  0.0000E+00  0.0000E+00  0.0000E+00  0.0000E+00  0.0000E+00  0.0000E+00  0.0000E+00  0.0000E+00
REACH   33        0     3  0.2952E+03  0.3417E-05  0.0000E+00  0.0000E+00  0.3417E-05  0.2480E-06  0.0000E+00  0.0000E+00  0.9152E+00  0.0000E+00  0.1830E+01  0.0000E+00  0.2746E+01  0.0000E+00  0.0000E+00  0.0000E+00  0.0000E+00  0.0000E+00  0.2746E+01  0.0000E+00  0.0000E+00  0.0000E+00  0.0000E+00  0.0000E+00  0.0000E+00  0.0000E+00  0.0000E+00  0.0000E+00  0.0000E+00  0.0000E+00  0.0000E+00  0.0000E+00  0.0000E+00  0.0000E+00  0.0000E+00  0.0000E+00  0.0000E+00  0.0000E+00  0.0000E+00  0.0000E+00  0.0000E+00  0.0000E+00  0.0000E+00
REACH   34        0     3  0.2200E+03  0.2547E-05  0.0000E+00  0.0000E+00  0.2547E-05  0.2790E-06  0.0000E+00  0.0000E+00  0.6822E+00  0.0000E+00  0.1364E+01  0.0000E+00  0.2047E+01  0.0000E+00  0.0000E+00  0.0000E+00  0.0000E+00  0.0000E+00  0.2047E+01  0.0000E+00  0.0000E+00  0.0000E+00  0.0000E+00  0.0000E+00  0.0000E+00  0.0000E+00  0.0000E+00  0.0000E+00  0.0000E+00  0.0000E+00  0.0000E+00  0.0000E+00  0.0000E+00  0.0000E+00  0.0000E+00  0.0000E+00  0.0000E+00  0.0000E+00  0.0000E+00  0.0000E+00  0.0000E+00  0.0000E+00  0.0000E+00
REACH   35        0     3  0.2570E+04  0.7623E-05  0.0000E+00  0.0000E+00  0.7623E-05  0.2163E-06  0.0000E+00  0.0000E+00  0.2065E+01  0.0000E+00  0.4131E+01  0.0000E+00  0.6196E+01  0.0000E+00  0.0000E+00  0.0000E+00  0.0000E+00  0.0000E+00  0.6196E+01  0.0000E+00  0.0000E+00  0.0000E+00  0.0000E+00  0.0000E+00  0.0000E+00  0.0000E+00  0.0000E+00  0.0000E+00  0.0000E+00  0.0000E+00  0.0000E+00  0.0000E+00  0.0000E+00  0.0000E+00  0.0000E+00  0.0000E+00  0.0000E+00  0.0000E+00  0.0000E+00  0.0000E+00  0.0000E+00  0.0000E+00  0.0000E+00
REACH   36        0     3  0.1912E+03  0.2171E-05  0.0000E+00  0.0000E+00  0.2171E-05  0.9225E-07  0.0000E+00  0.0000E+00  0.5929E+00  0.0000E+00  0.1186E+01  0.0000E+00  0.1779E+01  0.0000E+00  0.0000E+00  0.0000E+00  0.0000E+00  0.0000E+00  0.1779E+01  0.0000E+00  0.0000E+00  0.0000E+00  0.0000E+00  0.0000E+00  0.0000E+00  0.0000E+00  0.0000E+00  0.0000E+00  0.0000E+00  0.0000E+00  0.0000E+00  0.0000E+00  0.0000E+00  0.0000E+00  0.0000E+00  0.0000E+00  0.0000E+00  0.0000E+00  0.0000E+00  0.0000E+00  0.0000E+00  0.0000E+00  0.0000E+00
REACH   37        0     3  0.1712E+04  0.8356E-08  0.9683E-11  0.0000E+00  0.8356E-08  0.6179E-07  0.0000E+00  0.0000E+00  0.2246E-02  0.0000E+00  0.4492E-02  0.0000E+00  0.6738E-02  0.0000E+00  0.0000E+00  0.0000E+00  0.0000E+00  0.0000E+00  0.6738E-02  0.0000E+00  0.0000E+00  0.0000E+00  0.0000E+00  0.0000E+00  0.0000E+00  0.0000E+00  0.0000E+00  0.0000E+00  0.0000E+00  0.0000E+00  0.0000E+00  0.0000E+00  0.0000E+00  0.0000E+00  0.0000E+00  0.0000E+00  0.0000E+00  0.0000E+00  0.0000E+00  0.0000E+00  0.0000E+00  0.0000E+00  0.0000E+00
REACH   38        0     3  0.1930E+03  0.2176E-05  0.0000E+00  0.0000E+00  0.2176E-05  0.1537E-06  0.0000E+00  0.0000E+00  0.5978E+00  0.0000E+00  0.1196E+01  0.0000E+00  0.1794E+01  0.0000E+00  0.0000E+00  0.0000E+00  0.0000E+00  0.0000E+00  0.1794E+01  0.0000E+00  0.0000E+00  0.0000E+00  0.0000E+00  0.0000E+00  0.0000E+00  0.0000E+00  0.0000E+00  0.0000E+00  0.0000E+00  0.0000E+00  0.0000E+00  0.0000E+00  0.0000E+00  0.0000E+00  0.0000E+00  0.0000E+00  0.0000E+00  0.0000E+00  0.0000E+00  0.0000E+00  0.0000E+00  0.0000E+00  0.0000E+00
REACH   39        0     3  0.1479E+04  0.5774E-05  0.0000E+00  0.0000E+00  0.5774E-05  0.1857E-06  0.0000E+00  0.0000E+00  0.1552E+01  0.0000E+00  0.3105E+01  0.0000E+00  0.4657E+01  0.0000E+00  0.0000E+00  0.0000E+00  0.0000E+00  0.0000E+00  0.4657E+01  0.0000E+00  0.0000E+00  0.0000E+00  0.0000E+00  0.0000E+00  0.0000E+00  0.0000E+00  0.0000E+00  0.0000E+00  0.0000E+00  0.0000E+00  0.0000E+00  0.0000E+00  0.0000E+00  0.0000E+00  0.0000E+00  0.0000E+00  0.0000E+00  0.0000E+00  0.0000E+00  0.0000E+00  0.0000E+00  0.0000E+00  0.0000E+00
REACH   40        0     3  0.7850E+03  0.8904E-05  0.0000E+00  0.0000E+00  0.8904E-05  0.1844E-06  0.0000E+00  0.0000E+00  0.2433E+01  0.0000E+00  0.4866E+01  0.0000E+00  0.7299E+01  0.0000E+00  0.0000E+00  0.0000E+00  0.0000E+00  0.0000E+00  0.7299E+01  0.0000E+00  0.0000E+00  0.0000E+00  0.0000E+00  0.0000E+00  0.0000E+00  0.0000E+00  0.0000E+00  0.0000E+00  0.0000E+00  0.0000E+00  0.0000E+00  0.0000E+00  0.0000E+00  0.0000E+00  0.0000E+00  0.0000E+00  0.0000E+00  0.0000E+00  0.0000E+00  0.0000E+00  0.0000E+00  0.0000E+00  0.0000E+00
REACH   41        0     3  0.2326E+03  0.2684E-05  0.0000E+00  0.0000E+00  0.2684E-05  0.2166E-06  0.0000E+00  0.0000E+00  0.7209E+00  0.0000E+00  0.1442E+01  0.0000E+00  0.2163E+01  0.0000E+00  0.0000E+00  0.0000E+00  0.0000E+00  0.0000E+00  0.2163E+01  0.0000E+00  0.0000E+00  0.0000E+00  0.0000E+00  0.0000E+00  0.0000E+00  0.0000E+00  0.0000E+00  0.0000E+00  0.0000E+00  0.0000E+00  0.0000E+00  0.0000E+00  0.0000E+00  0.0000E+00  0.0000E+00  0.0000E+00  0.0000E+00  0.0000E+00  0.0000E+00  0.0000E+00  0.0000E+00  0.0000E+00  0.0000E+00
REACH    1        0     4  0.1105E+05  0.1064E-05  0.0000E+00  0.0000E+00  0.1064E-05  0.8984E-07  0.0000E+00  0.0000E+00  0.2767E+00  0.0000E+00  0.5534E+00  0.0000E+00  0.8302E+00  0.0000E+00  0.0000E+00  0.0000E+00  0.0000E+00  0.0000E+00  0.8302E+00  0.0000E+00  0.0000E+00  0.0000E+00  0.0000E+00  0.0000E+00  0.0000E+00  0.0000E+00  0.0000E+00  0.0000E+00  0.0000E+00  0.0000E+00  0.0000E+00  0.0000E+00  0.0000E+00  0.0000E+00  0.0000E+00  0.0000E+00  0.0000E+00  0.0000E+00  0.0000E+00  0.0000E+00  0.0000E+00  0.0000E+00  0.0000E+00
REACH    2        0     4  0.2330E+03  0.2692E-05  0.0000E+00  0.0000E+00  0.2692E-05  0.2399E-06  0.0000E+00  0.0000E+00  0.6986E+00  0.0000E+00  0.1397E+01  0.0000E+00  0.2096E+01  0.0000E+00  0.0000E+00  0.0000E+00  0.0000E+00  0.0000E+00  0.2096E+01  0.0000E+00  0.0000E+00  0.0000E+00  0.0000E+00  0.0000E+00  0.0000E+00  0.0000E+00  0.0000E+00  0.0000E+00  0.0000E+00  0.0000E+00  0.0000E+00  0.0000E+00  0.0000E+00  0.0000E+00  0.0000E+00  0.0000E+00  0.0000E+00  0.0000E+00  0.0000E+00  0.0000E+00  0.0000E+00  0.0000E+00  0.0000E+00
REACH    3        0     4  0.1073E+05  0.4402E-05  0.0000E+00  0.0000E+00  0.4402E-05  0.2700E-06  0.0000E+00  0.0000E+00  0.1141E+01  0.0000E+00  0.2282E+01  0.0000E+00  0.3424E+01  0.0000E+00  0.0000E+00  0.0000E+00  0.0000E+00  0.0000E+00  0.3424E+01  0.0000E+00  0.0000E+00  0.0000E+00  0.0000E+00  0.0000E+00  0.0000E+00  0.0000E+00  0.0000E+00  0.0000E+00  0.0000E+00  0.0000E+00  0.0000E+00  0.0000E+00  0.0000E+00  0.0000E+00  0.0000E+00  0.0000E+00  0.0000E+00  0.0000E+00  0.0000E+00  0.0000E+00  0.0000E+00  0.0000E+00  0.0000E+00
REACH    4        0     4  0.9239E+04  0.1760E-06  0.0000E+00  0.0000E+00  0.1760E-06  0.9000E-07  0.0000E+00  0.0000E+00  0.4563E-01  0.0000E+00  0.9126E-01  0.0000E+00  0.1369E+00  0.0000E+00  0.0000E+00  0.0000E+00  0.0000E+00  0.0000E+00  0.1369E+00  0.0000E+00  0.0000E+00  0.0000E+00  0.0000E+00  0.0000E+00  0.0000E+00  0.0000E+00  0.0000E+00  0.0000E+00  0.0000E+00  0.0000E+00  0.0000E+00  0.0000E+00  0.0000E+00  0.0000E+00  0.0000E+00  0.0000E+00  0.0000E+00  0.0000E+00  0.0000E+00  0.0000E+00  0.0000E+00  0.0000E+00  0.0000E+00
REACH    5        0     4  0.2104E+03  0.2434E-05  0.0000E+00  0.0000E+00  0.2434E-05  0.8994E-07  0.0000E+00  0.0000E+00  0.6313E+00  0.0000E+00  0.1263E+01  0.0000E+00  0.1894E+01  0.0000E+00  0.0000E+00  0.0000E+00  0.0000E+00  0.0000E+00  0.1894E+01  0.0000E+00  0.0000E+00  0.0000E+00  0.0000E+00  0.0000E+00  0.0000E+00  0.0000E+00  0.0000E+00  0.0000E+00  0.0000E+00  0.0000E+00  0.0000E+00  0.0000E+00  0.0000E+00  0.0000E+00  0.0000E+00  0.0000E+00  0.0000E+00  0.0000E+00  0.0000E+00  0.0000E+00  0.0000E+00  0.0000E+00  0.0000E+00
REACH    6        0     4  0.1106E+04  0.7584E-06  0.0000E+00  0.0000E+00  0.7584E-06  0.1500E-06  0.0000E+00  0.0000E+00  0.1966E+00  0.0000E+00  0.3932E+00  0.0000E+00  0.5897E+00  0.0000E+00  0.0000E+00  0.0000E+00  0.0000E+00  0.0000E+00  0.5897E+00  0.0000E+00  0.0000E+00  0.0000E+00  0.0000E+00  0.0000E+00  0.0000E+00  0.0000E+00  0.0000E+00  0.0000E+00  0.0000E+00  0.0000E+00  0.0000E+00  0.0000E+00  0.0000E+00  0.0000E+00  0.0000E+00  0.0000E+00  0.0000E+00  0.0000E+00  0.0000E+00  0.0000E+00  0.0000E+00  0.0000E+00  0.0000E+00
REACH    7        0     4  0.4338E+03  0.5004E-05  0.0000E+00  0.0000E+00  0.5004E-05  0.8972E-07  0.0000E+00  0.0000E+00  0.1302E+01  0.0000E+00  0.2603E+01  0.0000E+00  0.3905E+01  0.0000E+00  0.0000E+00  0.0000E+00  0.0000E+00  0.0000E+00  0.3905E+01  0.0000E+00  0.0000E+00  0.0000E+00  0.0000E+00  0.0000E+00  0.0000E+00  0.0000E+00  0.0000E+00  0.0000E+00  0.0000E+00  0.0000E+00  0.0000E+00  0.0000E+00  0.0000E+00  0.0000E+00  0.0000E+00  0.0000E+00  0.0000E+00  0.0000E+00  0.0000E+00  0.0000E+00  0.0000E+00  0.0000E+00  0.0000E+00
REACH    8        0     4  0.6069E+03  0.4762E-06  0.0000E+00  0.0000E+00  0.4762E-06  0.1200E-06  0.0000E+00  0.0000E+00  0.1234E+00  0.0000E+00  0.2469E+00  0.0000E+00  0.3703E+00  0.0000E+00  0.0000E+00  0.0000E+00  0.0000E+00  0.0000E+00  0.3703E+00  0.0000E+00  0.0000E+00  0.0000E+00  0.0000E+00  0.0000E+00  0.0000E+00  0.0000E+00  0.0000E+00  0.0000E+00  0.0000E+00  0.0000E+00  0.0000E+00  0.0000E+00  0.0000E+00  0.0000E+00  0.0000E+00  0.0000E+00  0.0000E+00  0.0000E+00  0.0000E+00  0.0000E+00  0.0000E+00  0.0000E+00  0.0000E+00
REACH    9        0     4  0.1884E+03  0.2175E-05  0.0000E+00  0.0000E+00  0.2175E-05  0.5987E-07  0.0000E+00  0.0000E+00  0.5654E+00  0.0000E+00  0.1131E+01  0.0000E+00  0.1696E+01  0.0000E+00  0.0000E+00  0.0000E+00  0.0000E+00  0.0000E+00  0.1696E+01  0.0000E+00  0.0000E+00  0.0000E+00  0.0000E+00  0.0000E+00  0.0000E+00  0.0000E+00  0.0000E+00  0.0000E+00  0.0000E+00  0.0000E+00  0.0000E+00  0.0000E+00  0.0000E+00  0.0000E+00  0.0000E+00  0.0000E+00  0.0000E+00  0.0000E+00  0.0000E+00  0.0000E+00  0.0000E+00  0.0000E+00  0.0000E+00
REACH   10        0     4  0.9013E+04  0.5108E-05  0.0000E+00  0.0000E+00  0.5108E-05  0.1800E-06  0.0000E+00  0.0000E+00  0.1324E+01  0.0000E+00  0.2649E+01  0.0000E+00  0.3973E+01  0.0000E+00  0.0000E+00  0.0000E+00  0.0000E+00  0.0000E+00  0.3973E+01  0.0000E+00  0.0000E+00  0.0000E+00  0.0000E+00  0.0000E+00  0.0000E+00  0.0000E+00  0.0000E+00  0.0000E+00  0.0000E+00  0.0000E+00  0.0000E+00  0.0000E+00  0.0000E+00  0.0000E+00  0.0000E+00  0.0000E+00  0.0000E+00  0.0000E+00  0.0000E+00  0.0000E+00  0.0000E+00  0.0000E+00  0.0000E+00
REACH   11        0     4  0.2665E+03  0.3081E-05  0.0000E+00  0.0000E+00  0.3081E-05  0.5993E-07  0.0000E+00  0.0000E+00  0.7997E+00  0.0000E+00  0.1599E+01  0.0000E+00  0.2399E+01  0.0000E+00  0.0000E+00  0.0000E+00  0.0000E+00  0.0000E+00  0.2399E+01  0.0000E+00  0.0000E+00  0.0000E+00  0.0000E+00  0.0000E+00  0.0000E+00  0.0000E+00  0.0000E+00  0.0000E+00  0.0000E+00  0.0000E+00  0.0000E+00  0.0000E+00  0.0000E+00  0.0000E+00  0.0000E+00  0.0000E+00  0.0000E+00  0.0000E+00  0.0000E+00  0.0000E+00  0.0000E+00  0.0000E+00  0.0000E+00
REACH   12        0     4  0.3773E+03  0.4361E-05  0.0000E+00  0.0000E+00  0.4361E-05  0.1499E-06  0.0000E+00  0.0000E+00  0.1132E+01  0.0000E+00  0.2264E+01  0.0000E+00  0.3396E+01  0.0000E+00  0.0000E+00  0.0000E+00  0.0000E+00  0.0000E+00  0.3396E+01  0.0000E+00  0.0000E+00  0.0000E+00  0.0000E+00  0.0000E+00  0.0000E+00  0.0000E+00  0.0000E+00  0.0000E+00  0.0000E+00  0.0000E+00  0.0000E+00  0.0000E+00  0.0000E+00  0.0000E+00  0.0000E+00  0.0000E+00  0.0000E+00  0.0000E+00  0.0000E+00  0.0000E+00  0.0000E+00  0.0000E+00  0.0000E+00
REACH   13        0     4  0.8305E+04  0.1163E-05  0.0000E+00  0.0000E+00  0.1163E-05  0.6000E-07  0.0000E+00  0.0000E+00  0.3014E+00  0.0000E+00  0.6029E+00  0.0000E+00  0.9043E+00  0.0000E+00  0.0000E+00  0.0000E+00  0.0000E+00  0.0000E+00  0.9043E+00  0.0000E+00  0.0000E+00  0.0000E+00  0.0000E+00  0.0000E+00  0.0000E+00  0.0000E+00  0.0000E+00  0.0000E+00  0.0000E+00  0.0000E+00  0.0000E+00  0.0000E+00  0.0000E+00  0.0000E+00  0.0000E+00  0.0000E+00  0.0000E+00  0.0000E+00  0.0000E+00  0.0000E+00  0.0000E+00  0.0000E+00  0.0000E+00
REACH   14        0     4  0.4059E+03  0.4698E-05  0.0000E+00  0.0000E+00  0.4698E-05  0.1500E-06  0.0000E+00  0.0000E+00  0.1218E+01  0.0000E+00  0.2436E+01  0.0000E+00  0.3653E+01  0.0000E+00  0.0000E+00  0.0000E+00  0.0000E+00  0.0000E+00  0.3653E+01  0.0000E+00  0.0000E+00  0.0000E+00  0.0000E+00  0.0000E+00  0.0000E+00  0.0000E+00  0.0000E+00  0.0000E+00  0.0000E+00  0.0000E+00  0.0000E+00  0.0000E+00  0.0000E+00  0.0000E+00  0.0000E+00  0.0000E+00  0.0000E+00  0.0000E+00  0.0000E+00  0.0000E+00  0.0000E+00  0.0000E+00  0.0000E+00
REACH   15        0     4  0.7799E+04  0.1081E-06  0.0000E+00  0.0000E+00  0.1081E-06  0.2100E-06  0.0000E+00  0.0000E+00  0.2803E-01  0.0000E+00  0.5607E-01  0.0000E+00  0.8410E-01  0.0000E+00  0.0000E+00  0.0000E+00  0.0000E+00  0.0000E+00  0.8410E-01  0.0000E+00  0.0000E+00  0.0000E+00  0.0000E+00  0.0000E+00  0.0000E+00  0.0000E+00  0.0000E+00  0.0000E+00  0.0000E+00  0.0000E+00  0.0000E+00  0.0000E+00  0.0000E+00  0.0000E+00  0.0000E+00  0.0000E+00  0.0000E+00  0.0000E+00  0.0000E+00  0.0000E+00  0.0000E+00  0.0000E+00  0.0000E+00
REACH   16        0     4  0.1961E+03  0.2270E-05  0.0000E+00  0.0000E+00  0.2270E-05  0.1800E-06  0.0000E+00  0.0000E+00  0.5885E+00  0.0000E+00  0.1177E+01  0.0000E+00  0.1765E+01  0.0000E+00  0.0000E+00  0.0000E+00  0.0000E+00  0.0000E+00  0.1765E+01  0.0000E+00  0.0000E+00  0.0000E+00  0.0000E+00  0.0000E+00  0.0000E+00  0.0000E+00  0.0000E+00  0.0000E+00  0.0000E+00  0.0000E+00  0.0000E+00  0.0000E+00  0.0000E+00  0.0000E+00  0.0000E+00  0.0000E+00  0.0000E+00  0.0000E+00  0.0000E+00  0.0000E+00  0.0000E+00  0.0000E+00  0.0000E+00
REACH   17        0     4  0.7593E+04  0.2465E-05  0.0000E+00  0.0000E+00  0.2465E-05  0.2400E-06  0.0000E+00  0.0000E+00  0.6391E+00  0.0000E+00  0.1278E+01  0.0000E+00  0.1917E+01  0.0000E+00  0.0000E+00  0.0000E+00  0.0000E+00  0.0000E+00  0.1917E+01  0.0000E+00  0.0000E+00  0.0000E+00  0.0000E+00  0.0000E+00  0.0000E+00  0.0000E+00  0.0000E+00  0.0000E+00  0.0000E+00  0.0000E+00  0.0000E+00  0.0000E+00  0.0000E+00  0.0000E+00  0.0000E+00  0.0000E+00  0.0000E+00  0.0000E+00  0.0000E+00  0.0000E+00  0.0000E+00  0.0000E+00  0.0000E+00
REACH   18        0     4  0.7187E+04  0.1881E-05  0.0000E+00  0.0000E+00  0.1881E-05  0.3000E-06  0.0000E+00  0.0000E+00  0.4876E+00  0.0000E+00  0.9751E+00  0.0000E+00  0.1463E+01  0.0000E+00  0.0000E+00  0.0000E+00  0.0000E+00  0.0000E+00  0.1463E+01  0.0000E+00  0.0000E+00  0.0000E+00  0.0000E+00  0.0000E+00  0.0000E+00  0.0000E+00  0.0000E+00  0.0000E+00  0.0000E+00  0.0000E+00  0.0000E+00  0.0000E+00  0.0000E+00  0.0000E+00  0.0000E+00  0.0000E+00  0.0000E+00  0.0000E+00  0.0000E+00  0.0000E+00  0.0000E+00  0.0000E+00  0.0000E+00
REACH   19        0     4  0.6844E+04  0.1309E-05  0.0000E+00  0.0000E+00  0.1309E-05  0.1500E-06  0.0000E+00  0.0000E+00  0.3394E+00  0.0000E+00  0.6788E+00  0.0000E+00  0.1018E+01  0.0000E+00  0.0000E+00  0.0000E+00  0.0000E+00  0.0000E+00  0.1018E+01  0.0000E+00  0.0000E+00  0.0000E+00  0.0000E+00  0.0000E+00  0.0000E+00  0.0000E+00  0.0000E+00  0.0000E+00  0.0000E+00  0.0000E+00  0.0000E+00  0.0000E+00  0.0000E+00  0.0000E+00  0.0000E+00  0.0000E+00  0.0000E+00  0.0000E+00  0.0000E+00  0.0000E+00  0.0000E+00  0.0000E+00  0.0000E+00
REACH   20        0     4  0.1810E+03  0.2094E-05  0.0000E+00  0.0000E+00  0.2094E-05  0.3000E-06  0.0000E+00  0.0000E+00  0.5429E+00  0.0000E+00  0.1086E+01  0.0000E+00  0.1629E+01  0.0000E+00  0.0000E+00  0.0000E+00  0.0000E+00  0.0000E+00  0.1629E+01  0.0000E+00  0.0000E+00  0.0000E+00  0.0000E+00  0.0000E+00  0.0000E+00  0.0000E+00  0.0000E+00  0.0000E+00  0.0000E+00  0.0000E+00  0.0000E+00  0.0000E+00  0.0000E+00  0.0000E+00  0.0000E+00  0.0000E+00  0.0000E+00  0.0000E+00  0.0000E+00  0.0000E+00  0.0000E+00  0.0000E+00  0.0000E+00
REACH   21        0     4  0.1930E+03  0.2234E-05  0.0000E+00  0.0000E+00  0.2234E-05  0.1500E-06  0.0000E+00  0.0000E+00  0.5791E+00  0.0000E+00  0.1158E+01  0.0000E+00  0.1737E+01  0.0000E+00  0.0000E+00  0.0000E+00  0.0000E+00  0.0000E+00  0.1737E+01  0.0000E+00  0.0000E+00  0.0000E+00  0.0000E+00  0.0000E+00  0.0000E+00  0.0000E+00  0.0000E+00  0.0000E+00  0.0000E+00  0.0000E+00  0.0000E+00  0.0000E+00  0.0000E+00  0.0000E+00  0.0000E+00  0.0000E+00  0.0000E+00  0.0000E+00  0.0000E+00  0.0000E+00  0.0000E+00  0.0000E+00  0.0000E+00
REACH   22        0     4  0.2531E+03  0.2929E-05  0.0000E+00  0.0000E+00  0.2929E-05  0.3300E-06  0.0000E+00  0.0000E+00  0.7594E+00  0.0000E+00  0.1519E+01  0.0000E+00  0.2278E+01  0.0000E+00  0.0000E+00  0.0000E+00  0.0000E+00  0.0000E+00  0.2278E+01  0.0000E+00  0.0000E+00  0.0000E+00  0.0000E+00  0.0000E+00  0.0000E+00  0.0000E+00  0.0000E+00  0.0000E+00  0.0000E+00  0.0000E+00  0.0000E+00  0.0000E+00  0.0000E+00  0.0000E+00  0.0000E+00  0.0000E+00  0.0000E+00  0.0000E+00  0.0000E+00  0.0000E+00  0.0000E+00  0.0000E+00  0.0000E+00
[...]
REACH    6        0  1960  0.1106E+04  0.7584E-06  0.0000E+00  0.0000E+00  0.7584E-06  0.1830E-05  0.0000E+00  0.0000E+00  0.2398E+01  0.0000E+00  0.4797E+01  0.0000E+00  0.7195E+01  0.0000E+00  0.0000E+00  0.0000E+00  0.0000E+00  0.0000E+00  0.7195E+01  0.0000E+00  0.0000E+00  0.0000E+00  0.0000E+00  0.0000E+00  0.0000E+00  0.0000E+00  0.0000E+00  0.0000E+00  0.0000E+00  0.0000E+00  0.0000E+00  0.0000E+00  0.0000E+00  0.0000E+00  0.0000E+00  0.0000E+00  0.0000E+00  0.0000E+00  0.0000E+00  0.0000E+00  0.0000E+00  0.0000E+00  0.0000E+00
REACH    7        0  1960  0.4338E+03  0.5004E-05  0.0000E+00  0.0000E+00  0.5004E-05  0.1095E-05  0.0000E+00  0.0000E+00  0.1588E+02  0.0000E+00  0.3176E+02  0.0000E+00  0.4764E+02  0.0000E+00  0.0000E+00  0.0000E+00  0.0000E+00  0.0000E+00  0.4764E+02  0.0000E+00  0.0000E+00  0.0000E+00  0.0000E+00  0.0000E+00  0.0000E+00  0.0000E+00  0.0000E+00  0.0000E+00  0.0000E+00  0.0000E+00  0.0000E+00  0.0000E+00  0.0000E+00  0.0000E+00  0.0000E+00  0.0000E+00  0.0000E+00  0.0000E+00  0.0000E+00  0.0000E+00  0.0000E+00  0.0000E+00  0.0000E+00
REACH    8        0  1960  0.6069E+03  0.4762E-06  0.0000E+00  0.0000E+00  0.4762E-06  0.1464E-05  0.0000E+00  0.0000E+00  0.1506E+01  0.0000E+00  0.3012E+01  0.0000E+00  0.4518E+01  0.0000E+00  0.0000E+00  0.0000E+00  0.0000E+00  0.0000E+00  0.4518E+01  0.0000E+00  0.0000E+00  0.0000E+00  0.0000E+00  0.0000E+00  0.0000E+00  0.0000E+00  0.0000E+00  0.0000E+00  0.0000E+00  0.0000E+00  0.0000E+00  0.0000E+00  0.0000E+00  0.0000E+00  0.0000E+00  0.0000E+00  0.0000E+00  0.0000E+00  0.0000E+00  0.0000E+00  0.0000E+00  0.0000E+00  0.0000E+00
REACH    9        0  1960  0.1884E+03  0.2175E-05  0.0000E+00  0.0000E+00  0.2175E-05  0.7304E-06  0.0000E+00  0.0000E+00  0.6897E+01  0.0000E+00  0.1379E+02  0.0000E+00  0.2069E+02  0.0000E+00  0.0000E+00  0.0000E+00  0.0000E+00  0.0000E+00  0.2069E+02  0.0000E+00  0.0000E+00  0.0000E+00  0.0000E+00  0.0000E+00  0.0000E+00  0.0000E+00  0.0000E+00  0.0000E+00  0.0000E+00  0.0000E+00  0.0000E+00  0.0000E+00  0.0000E+00  0.0000E+00  0.0000E+00  0.0000E+00  0.0000E+00  0.0000E+00  0.0000E+00  0.0000E+00  0.0000E+00  0.0000E+00  0.0000E+00
REACH   10        0  1960  0.9013E+04  0.5108E-05  0.0000E+00  0.0000E+00  0.5108E-05  0.2196E-05  0.0000E+00  0.0000E+00  0.1616E+02  0.0000E+00  0.3232E+02  0.0000E+00  0.4848E+02  0.0000E+00  0.0000E+00  0.0000E+00  0.0000E+00  0.0000E+00  0.4848E+02  0.0000E+00  0.0000E+00  0.0000E+00  0.0000E+00  0.0000E+00  0.0000E+00  0.0000E+00  0.0000E+00  0.0000E+00  0.0000E+00  0.0000E+00  0.0000E+00  0.0000E+00  0.0000E+00  0.0000E+00  0.0000E+00  0.0000E+00  0.0000E+00  0.0000E+00  0.0000E+00  0.0000E+00  0.0000E+00  0.0000E+00  0.0000E+00
REACH   11        0  1960  0.2665E+03  0.3081E-05  0.0000E+00  0.0000E+00  0.3081E-05  0.7312E-06  0.0000E+00  0.0000E+00  0.9756E+01  0.0000E+00  0.1951E+02  0.0000E+00  0.2927E+02  0.0000E+00  0.0000E+00  0.0000E+00  0.0000E+00  0.0000E+00  0.2927E+02  0.0000E+00  0.0000E+00  0.0000E+00  0.0000E+00  0.0000E+00  0.0000E+00  0.0000E+00  0.0000E+00  0.0000E+00  0.0000E+00  0.0000E+00  0.0000E+00  0.0000E+00  0.0000E+00  0.0000E+00  0.0000E+00  0.0000E+00  0.0000E+00  0.0000E+00  0.0000E+00  0.0000E+00  0.0000E+00  0.0000E+00  0.0000E+00
REACH   12        0  1960  0.3773E+03  0.4361E-05  0.0000E+00  0.0000E+00  0.4361E-05  0.1828E-05  0.0000E+00  0.0000E+00  0.1381E+02  0.0000E+00  0.2762E+02  0.0000E+00  0.4143E+02  0.0000E+00  0.0000E+00  0.0000E+00  0.0000E+00  0.0000E+00  0.4143E+02  0.0000E+00  0.0000E+00  0.0000E+00  0.0000E+00  0.0000E+00  0.0000E+00  0.0000E+00  0.0000E+00  0.0000E+00  0.0000E+00  0.0000E+00  0.0000E+00  0.0000E+00  0.0000E+00  0.0000E+00  0.0000E+00  0.0000E+00  0.0000E+00  0.0000E+00  0.0000E+00  0.0000E+00  0.0000E+00  0.0000E+00  0.0000E+00
REACH   13        0  1960  0.8305E+04  0.1163E-05  0.0000E+00  0.0000E+00  0.1163E-05  0.7320E-06  0.0000E+00  0.0000E+00  0.3677E+01  0.0000E+00  0.7355E+01  0.0000E+00  0.1103E+02  0.0000E+00  0.0000E+00  0.0000E+00  0.0000E+00  0.0000E+00  0.1103E+02  0.0000E+00  0.0000E+00  0.0000E+00  0.0000E+00  0.0000E+00  0.0000E+00  0.0000E+00  0.0000E+00  0.0000E+00  0.0000E+00  0.0000E+00  0.0000E+00  0.0000E+00  0.0000E+00  0.0000E+00  0.0000E+00  0.0000E+00  0.0000E+00  0.0000E+00  0.0000E+00  0.0000E+00  0.0000E+00  0.0000E+00  0.0000E+00
REACH   14        0  1960  0.4059E+03  0.4698E-05  0.0000E+00  0.0000E+00  0.4698E-05  0.1830E-05  0.0000E+00  0.0000E+00  0.1486E+02  0.0000E+00  0.2971E+02  0.0000E+00  0.4457E+02  0.0000E+00  0.0000E+00  0.0000E+00  0.0000E+00  0.0000E+00  0.4457E+02  0.0000E+00  0.0000E+00  0.0000E+00  0.0000E+00  0.0000E+00  0.0000E+00  0.0000E+00  0.0000E+00  0.0000E+00  0.0000E+00  0.0000E+00  0.0000E+00  0.0000E+00  0.0000E+00  0.0000E+00  0.0000E+00  0.0000E+00  0.0000E+00  0.0000E+00  0.0000E+00  0.0000E+00  0.0000E+00  0.0000E+00  0.0000E+00
REACH   15        0  1960  0.7799E+04  0.1963E-06  0.0000E+00  0.0000E+00  0.1963E-06  0.3000E-05  0.0000E+00  0.0000E+00  0.3420E+00  0.0000E+00  0.6840E+00  0.0000E+00  0.1026E+01  0.0000E+00  0.0000E+00  0.0000E+00  0.0000E+00  0.0000E+00  0.1026E+01  0.0000E+00  0.0000E+00  0.0000E+00  0.0000E+00  0.0000E+00  0.0000E+00  0.0000E+00  0.0000E+00  0.0000E+00  0.0000E+00  0.0000E+00  0.0000E+00  0.0000E+00  0.0000E+00  0.0000E+00  0.0000E+00  0.0000E+00  0.0000E+00  0.0000E+00  0.0000E+00  0.0000E+00  0.0000E+00  0.0000E+00  0.0000E+00
REACH   16        0  1960  0.1961E+03  0.2270E-05  0.4161E-07  0.0000E+00  0.2270E-05  0.2196E-05  0.4380E-06  0.3574E-01  0.7179E+01  0.0000E+00  0.1436E+02  0.0000E+00  0.2154E+02  0.0000E+00  0.0000E+00  0.0000E+00  0.0000E+00  0.0000E+00  0.2154E+02  0.0000E+00  0.0000E+00  0.0000E+00  0.0000E+00  0.0000E+00  0.0000E+00  0.0000E+00  0.0000E+00  0.0000E+00  0.0000E+00  0.0000E+00  0.0000E+00  0.0000E+00  0.0000E+00  0.0000E+00  0.0000E+00  0.0000E+00  0.0000E+00  0.0000E+00  0.0000E+00  0.0000E+00  0.0000E+00  0.0000E+00  0.0000E+00
REACH   17        0  1960  0.7593E+04  0.2541E-05  0.4659E-07  0.0000E+00  0.2541E-05  0.2774E-05  0.0000E+00  0.0000E+00  0.7796E+01  0.0000E+00  0.1559E+02  0.0000E+00  0.2339E+02  0.0000E+00  0.0000E+00  0.0000E+00  0.0000E+00  0.0000E+00  0.2339E+02  0.0000E+00  0.0000E+00  0.0000E+00  0.0000E+00  0.0000E+00  0.0000E+00  0.0000E+00  0.0000E+00  0.0000E+00  0.0000E+00  0.0000E+00  0.0000E+00  0.0000E+00  0.0000E+00  0.0000E+00  0.0000E+00  0.0000E+00  0.0000E+00  0.0000E+00  0.0000E+00  0.0000E+00  0.0000E+00  0.0000E+00  0.0000E+00
REACH   18        0  1960  0.7187E+04  0.1957E-05  0.3736E-07  0.0000E+00  0.1957E-05  0.3630E-05  0.0000E+00  0.0000E+00  0.5948E+01  0.0000E+00  0.1190E+02  0.0000E+00  0.1784E+02  0.0000E+00  0.0000E+00  0.0000E+00  0.0000E+00  0.0000E+00  0.1784E+02  0.0000E+00  0.0000E+00  0.0000E+00  0.0000E+00  0.0000E+00  0.0000E+00  0.0000E+00  0.0000E+00  0.0000E+00  0.0000E+00  0.0000E+00  0.0000E+00  0.0000E+00  0.0000E+00  0.0000E+00  0.0000E+00  0.0000E+00  0.0000E+00  0.0000E+00  0.0000E+00  0.0000E+00  0.0000E+00  0.0000E+00  0.0000E+00
REACH   19        0  1960  0.6844E+04  0.1442E-05  0.3491E-07  0.0000E+00  0.1442E-05  0.1948E-05  0.0000E+00  0.0000E+00  0.4141E+01  0.0000E+00  0.8281E+01  0.0000E+00  0.1242E+02  0.0000E+00  0.0000E+00  0.0000E+00  0.0000E+00  0.0000E+00  0.1242E+02  0.0000E+00  0.0000E+00  0.0000E+00  0.0000E+00  0.0000E+00  0.0000E+00  0.0000E+00  0.0000E+00  0.0000E+00  0.0000E+00  0.0000E+00  0.0000E+00  0.0000E+00  0.0000E+00  0.0000E+00  0.0000E+00  0.0000E+00  0.0000E+00  0.0000E+00  0.0000E+00  0.0000E+00  0.0000E+00  0.0000E+00  0.0000E+00
REACH   20        0  1960  0.1810E+03  0.2094E-05  0.4156E-07  0.0000E+00  0.2094E-05  0.3660E-05  0.7000E-06  0.6498E-01  0.6623E+01  0.0000E+00  0.1325E+02  0.0000E+00  0.1987E+02  0.0000E+00  0.0000E+00  0.0000E+00  0.0000E+00  0.0000E+00  0.1987E+02  0.0000E+00  0.0000E+00  0.0000E+00  0.0000E+00  0.0000E+00  0.0000E+00  0.0000E+00  0.0000E+00  0.0000E+00  0.0000E+00  0.0000E+00  0.0000E+00  0.0000E+00  0.0000E+00  0.0000E+00  0.0000E+00  0.0000E+00  0.0000E+00  0.0000E+00  0.0000E+00  0.0000E+00  0.0000E+00  0.0000E+00  0.0000E+00
REACH   21        0  1960  0.1930E+03  0.2234E-05  0.3815E-07  0.0000E+00  0.2234E-05  0.1830E-05  0.3250E-06  0.2779E-01  0.7065E+01  0.0000E+00  0.1413E+02  0.0000E+00  0.2120E+02  0.0000E+00  0.0000E+00  0.0000E+00  0.0000E+00  0.0000E+00  0.2120E+02  0.0000E+00  0.0000E+00  0.0000E+00  0.0000E+00  0.0000E+00  0.0000E+00  0.0000E+00  0.0000E+00  0.0000E+00  0.0000E+00  0.0000E+00  0.0000E+00  0.0000E+00  0.0000E+00  0.0000E+00  0.0000E+00  0.0000E+00  0.0000E+00  0.0000E+00  0.0000E+00  0.0000E+00  0.0000E+00  0.0000E+00  0.0000E+00
REACH   22        0  1960  0.2531E+03  0.2929E-05  0.5035E-07  0.0000E+00  0.2929E-05  0.4026E-05  0.7260E-06  0.4624E-01  0.9264E+01  0.0000E+00  0.1853E+02  0.0000E+00  0.2779E+02  0.0000E+00  0.0000E+00  0.0000E+00  0.0000E+00  0.0000E+00  0.2779E+02  0.0000E+00  0.0000E+00  0.0000E+00  0.0000E+00  0.0000E+00  0.0000E+00  0.0000E+00  0.0000E+00  0.0000E+00  0.0000E+00  0.0000E+00  0.0000E+00  0.0000E+00  0.0000E+00  0.0000E+00  0.0000E+00  0.0000E+00  0.0000E+00  0.0000E+00  0.0000E+00  0.0000E+00  0.0000E+00  0.0000E+00  0.0000E+00
REACH   23        0  1960  0.6477E+04  0.4909E-05  0.8188E-07  0.0000E+00  0.4909E-05  0.1890E-05  0.0000E+00  0.0000E+00  0.1523E+02  0.0000E+00  0.3046E+02  0.0000E+00  0.4568E+02  0.0000E+00  0.0000E+00  0.0000E+00  0.0000E+00  0.0000E+00  0.4568E+02  0.0000E+00  0.0000E+00  0.0000E+00  0.0000E+00  0.0000E+00  0.0000E+00  0.0000E+00  0.0000E+00  0.0000E+00  0.0000E+00  0.0000E+00  0.0000E+00  0.0000E+00  0.0000E+00  0.0000E+00  0.0000E+00  0.0000E+00  0.0000E+00  0.0000E+00  0.0000E+00  0.0000E+00  0.0000E+00  0.0000E+00  0.0000E+00
REACH   24        0  1960  0.1506E+03  0.1743E-05  0.3287E-07  0.0000E+00  0.1743E-05  0.4026E-05  0.7370E-06  0.7447E-01  0.5512E+01  0.0000E+00  0.1102E+02  0.0000E+00  0.1653E+02  0.0000E+00  0.0000E+00  0.0000E+00  0.0000E+00  0.0000E+00  0.1653E+02  0.0000E+00  0.0000E+00  0.0000E+00  0.0000E+00  0.0000E+00  0.0000E+00  0.0000E+00  0.0000E+00  0.0000E+00  0.0000E+00  0.0000E+00  0.0000E+00  0.0000E+00  0.0000E+00  0.0000E+00  0.0000E+00  0.0000E+00  0.0000E+00  0.0000E+00  0.0000E+00  0.0000E+00  0.0000E+00  0.0000E+00  0.0000E+00
REACH   25        0  1960  0.5911E+04  0.3323E-05  0.6141E-07  0.0000E+00  0.3323E-05  0.1830E-05  0.0000E+00  0.0000E+00  0.1007E+02  0.0000E+00  0.2015E+02  0.0000E+00  0.3022E+02  0.0000E+00  0.0000E+00  0.0000E+00  0.0000E+00  0.0000E+00  0.3022E+02  0.0000E+00  0.0000E+00  0.0000E+00  0.0000E+00  0.0000E+00  0.0000E+00  0.0000E+00  0.0000E+00  0.0000E+00  0.0000E+00  0.0000E+00  0.0000E+00  0.0000E+00  0.0000E+00  0.0000E+00  0.0000E+00  0.0000E+00  0.0000E+00  0.0000E+00  0.0000E+00  0.0000E+00  0.0000E+00  0.0000E+00  0.0000E+00
REACH   26        0  1960  0.4609E+04  0.5856E-05  0.9888E-07  0.0000E+00  0.5856E-05  0.2754E-05  0.0000E+00  0.0000E+00  0.1822E+02  0.0000E+00  0.3643E+02  0.0000E+00  0.5465E+02  0.0000E+00  0.0000E+00  0.0000E+00  0.0000E+00  0.0000E+00  0.5465E+02  0.0000E+00  0.0000E+00  0.0000E+00  0.0000E+00  0.0000E+00  0.0000E+00  0.0000E+00  0.0000E+00  0.0000E+00  0.0000E+00  0.0000E+00  0.0000E+00  0.0000E+00  0.0000E+00  0.0000E+00  0.0000E+00  0.0000E+00  0.0000E+00  0.0000E+00  0.0000E+00  0.0000E+00  0.0000E+00  0.0000E+00  0.0000E+00
REACH   27        0  1960  0.3778E+03  0.4363E-05  0.2760E-07  0.0000E+00  0.4363E-05  0.1462E-05  0.9588E-07  0.1074E-01  0.1383E+02  0.0000E+00  0.2766E+02  0.0000E+00  0.4149E+02  0.0000E+00  0.0000E+00  0.0000E+00  0.0000E+00  0.0000E+00  0.4149E+02  0.0000E+00  0.0000E+00  0.0000E+00  0.0000E+00  0.0000E+00  0.0000E+00  0.0000E+00  0.0000E+00  0.0000E+00  0.0000E+00  0.0000E+00  0.0000E+00  0.0000E+00  0.0000E+00  0.0000E+00  0.0000E+00  0.0000E+00  0.0000E+00  0.0000E+00  0.0000E+00  0.0000E+00  0.0000E+00  0.0000E+00  0.0000E+00
REACH   28        0  1960  0.1027E+04  0.2100E-05  0.3928E-07  0.0000E+00  0.2100E-05  0.4044E-05  0.0000E+00  0.0000E+00  0.6328E+01  0.0000E+00  0.1266E+02  0.0000E+00  0.1898E+02  0.0000E+00  0.0000E+00  0.0000E+00  0.0000E+00  0.0000E+00  0.1898E+02  0.0000E+00  0.0000E+00  0.0000E+00  0.0000E+00  0.0000E+00  0.0000E+00  0.0000E+00  0.0000E+00  0.0000E+00  0.0000E+00  0.0000E+00  0.0000E+00  0.0000E+00  0.0000E+00  0.0000E+00  0.0000E+00  0.0000E+00  0.0000E+00  0.0000E+00  0.0000E+00  0.0000E+00  0.0000E+00  0.0000E+00  0.0000E+00
REACH   29        0  1960  0.3915E+04  0.3045E-05  0.5643E-07  0.0000E+00  0.3045E-05  0.1608E-05  0.0000E+00  0.0000E+00  0.9199E+01  0.0000E+00  0.1840E+02  0.0000E+00  0.2760E+02  0.0000E+00  0.0000E+00  0.0000E+00  0.0000E+00  0.0000E+00  0.2760E+02  0.0000E+00  0.0000E+00  0.0000E+00  0.0000E+00  0.0000E+00  0.0000E+00  0.0000E+00  0.0000E+00  0.0000E+00  0.0000E+00  0.0000E+00  0.0000E+00  0.0000E+00  0.0000E+00  0.0000E+00  0.0000E+00  0.0000E+00  0.0000E+00  0.0000E+00  0.0000E+00  0.0000E+00  0.0000E+00  0.0000E+00  0.0000E+00
REACH   30        0  1960  0.1959E+03  0.2267E-05  0.3935E-07  0.0000E+00  0.2267E-05  0.2196E-05  0.3840E-06  0.3458E-01  0.7171E+01  0.0000E+00  0.1434E+02  0.0000E+00  0.2151E+02  0.0000E+00  0.0000E+00  0.0000E+00  0.0000E+00  0.0000E+00  0.2151E+02  0.0000E+00  0.0000E+00  0.0000E+00  0.0000E+00  0.0000E+00  0.0000E+00  0.0000E+00  0.0000E+00  0.0000E+00  0.0000E+00  0.0000E+00  0.0000E+00  0.0000E+00  0.0000E+00  0.0000E+00  0.0000E+00  0.0000E+00  0.0000E+00  0.0000E+00  0.0000E+00  0.0000E+00  0.0000E+00  0.0000E+00  0.0000E+00
REACH   31        0  1960  0.4764E+03  0.5512E-05  0.7140E-07  0.0000E+00  0.5512E-05  0.1830E-05  0.2000E-06  0.1586E-01  0.1744E+02  0.0000E+00  0.3487E+02  0.0000E+00  0.5231E+02  0.0000E+00  0.0000E+00  0.0000E+00  0.0000E+00  0.0000E+00  0.5231E+02  0.0000E+00  0.0000E+00  0.0000E+00  0.0000E+00  0.0000E+00  0.0000E+00  0.0000E+00  0.0000E+00  0.0000E+00  0.0000E+00  0.0000E+00  0.0000E+00  0.0000E+00  0.0000E+00  0.0000E+00  0.0000E+00  0.0000E+00  0.0000E+00  0.0000E+00  0.0000E+00  0.0000E+00  0.0000E+00  0.0000E+00  0.0000E+00
REACH   32        0  1960  0.3369E+04  0.6791E-05  0.1147E-06  0.0000E+00  0.6791E-05  0.2139E-05  0.0000E+00  0.0000E+00  0.2119E+02  0.0000E+00  0.4237E+02  0.0000E+00  0.6356E+02  0.0000E+00  0.0000E+00  0.0000E+00  0.0000E+00  0.0000E+00  0.6356E+02  0.0000E+00  0.0000E+00  0.0000E+00  0.0000E+00  0.0000E+00  0.0000E+00  0.0000E+00  0.0000E+00  0.0000E+00  0.0000E+00  0.0000E+00  0.0000E+00  0.0000E+00  0.0000E+00  0.0000E+00  0.0000E+00  0.0000E+00  0.0000E+00  0.0000E+00  0.0000E+00  0.0000E+00  0.0000E+00  0.0000E+00  0.0000E+00
REACH   33        0  1960  0.2952E+03  0.3417E-05  0.2260E-07  0.0000E+00  0.3417E-05  0.2928E-05  0.2080E-06  0.3058E-01  0.1081E+02  0.0000E+00  0.2161E+02  0.0000E+00  0.3242E+02  0.0000E+00  0.0000E+00  0.0000E+00  0.0000E+00  0.0000E+00  0.3242E+02  0.0000E+00  0.0000E+00  0.0000E+00  0.0000E+00  0.0000E+00  0.0000E+00  0.0000E+00  0.0000E+00  0.0000E+00  0.0000E+00  0.0000E+00  0.0000E+00  0.0000E+00  0.0000E+00  0.0000E+00  0.0000E+00  0.0000E+00  0.0000E+00  0.0000E+00  0.0000E+00  0.0000E+00  0.0000E+00  0.0000E+00  0.0000E+00
REACH   34        0  1960  0.2200E+03  0.2547E-05  0.3298E-07  0.0000E+00  0.2547E-05  0.3294E-05  0.3600E-06  0.2757E-01  0.8054E+01  0.0000E+00  0.1611E+02  0.0000E+00  0.2416E+02  0.0000E+00  0.0000E+00  0.0000E+00  0.0000E+00  0.0000E+00  0.2416E+02  0.0000E+00  0.0000E+00  0.0000E+00  0.0000E+00  0.0000E+00  0.0000E+00  0.0000E+00  0.0000E+00  0.0000E+00  0.0000E+00  0.0000E+00  0.0000E+00  0.0000E+00  0.0000E+00  0.0000E+00  0.0000E+00  0.0000E+00  0.0000E+00  0.0000E+00  0.0000E+00  0.0000E+00  0.0000E+00  0.0000E+00  0.0000E+00
REACH   35        0  1960  0.2570E+04  0.7637E-05  0.1160E-06  0.0000E+00  0.7637E-05  0.2128E-05  0.0000E+00  0.0000E+00  0.2438E+02  0.0000E+00  0.4877E+02  0.0000E+00  0.7315E+02  0.0000E+00  0.0000E+00  0.0000E+00  0.0000E+00  0.0000E+00  0.7315E+02  0.0000E+00  0.0000E+00  0.0000E+00  0.0000E+00  0.0000E+00  0.0000E+00  0.0000E+00  0.0000E+00  0.0000E+00  0.0000E+00  0.0000E+00  0.0000E+00  0.0000E+00  0.0000E+00  0.0000E+00  0.0000E+00  0.0000E+00  0.0000E+00  0.0000E+00  0.0000E+00  0.0000E+00  0.0000E+00  0.0000E+00  0.0000E+00
REACH   36        0  1960  0.1912E+03  0.2171E-05  0.9658E-08  0.0000E+00  0.2171E-05  0.1089E-05  0.5654E-07  0.5265E-02  0.7000E+01  0.0000E+00  0.1400E+02  0.0000E+00  0.2100E+02  0.0000E+00  0.0000E+00  0.0000E+00  0.0000E+00  0.0000E+00  0.2100E+02  0.0000E+00  0.0000E+00  0.0000E+00  0.0000E+00  0.0000E+00  0.0000E+00  0.0000E+00  0.0000E+00  0.0000E+00  0.0000E+00  0.0000E+00  0.0000E+00  0.0000E+00  0.0000E+00  0.0000E+00  0.0000E+00  0.0000E+00  0.0000E+00  0.0000E+00  0.0000E+00  0.0000E+00  0.0000E+00  0.0000E+00  0.0000E+00
REACH   37        0  1960  0.1712E+04  0.4660E-07  0.4147E-08  0.0000E+00  0.4660E-07  0.8173E-06  0.0000E+00  0.0000E+00  0.2652E-01  0.0000E+00  0.5304E-01  0.0000E+00  0.7956E-01  0.0000E+00  0.0000E+00  0.0000E+00  0.0000E+00  0.0000E+00  0.7956E-01  0.0000E+00  0.0000E+00  0.0000E+00  0.0000E+00  0.0000E+00  0.0000E+00  0.0000E+00  0.0000E+00  0.0000E+00  0.0000E+00  0.0000E+00  0.0000E+00  0.0000E+00  0.0000E+00  0.0000E+00  0.0000E+00  0.0000E+00  0.0000E+00  0.0000E+00  0.0000E+00  0.0000E+00  0.0000E+00  0.0000E+00  0.0000E+00
REACH   38        0  1960  0.1930E+03  0.2176E-05  0.9927E-08  0.0000E+00  0.2176E-05  0.1814E-05  0.9419E-07  0.8675E-02  0.7058E+01  0.0000E+00  0.1412E+02  0.0000E+00  0.2117E+02  0.0000E+00  0.0000E+00  0.0000E+00  0.0000E+00  0.0000E+00  0.2117E+02  0.0000E+00  0.0000E+00  0.0000E+00  0.0000E+00  0.0000E+00  0.0000E+00  0.0000E+00  0.0000E+00  0.0000E+00  0.0000E+00  0.0000E+00  0.0000E+00  0.0000E+00  0.0000E+00  0.0000E+00  0.0000E+00  0.0000E+00  0.0000E+00  0.0000E+00  0.0000E+00  0.0000E+00  0.0000E+00  0.0000E+00  0.0000E+00
REACH   39        0  1960  0.1479E+04  0.5821E-05  0.2596E-07  0.0000E+00  0.5821E-05  0.2078E-05  0.0000E+00  0.0000E+00  0.1833E+02  0.0000E+00  0.3665E+02  0.0000E+00  0.5498E+02  0.0000E+00  0.0000E+00  0.0000E+00  0.0000E+00  0.0000E+00  0.5498E+02  0.0000E+00  0.0000E+00  0.0000E+00  0.0000E+00  0.0000E+00  0.0000E+00  0.0000E+00  0.0000E+00  0.0000E+00  0.0000E+00  0.0000E+00  0.0000E+00  0.0000E+00  0.0000E+00  0.0000E+00  0.0000E+00  0.0000E+00  0.0000E+00  0.0000E+00  0.0000E+00  0.0000E+00  0.0000E+00  0.0000E+00  0.0000E+00
REACH   40        0  1960  0.7850E+03  0.8904E-05  0.3705E-07  0.0000E+00  0.8904E-05  0.2177E-05  0.1130E-06  0.6771E-02  0.2873E+02  0.0000E+00  0.5745E+02  0.0000E+00  0.8618E+02  0.0000E+00  0.0000E+00  0.0000E+00  0.0000E+00  0.0000E+00  0.8618E+02  0.0000E+00  0.0000E+00  0.0000E+00  0.0000E+00  0.0000E+00  0.0000E+00  0.0000E+00  0.0000E+00  0.0000E+00  0.0000E+00  0.0000E+00  0.0000E+00  0.0000E+00  0.0000E+00  0.0000E+00  0.0000E+00  0.0000E+00  0.0000E+00  0.0000E+00  0.0000E+00  0.0000E+00  0.0000E+00  0.0000E+00  0.0000E+00
REACH   41        0  1960  0.2326E+03  0.2684E-05  0.1228E-07  0.0000E+00  0.2684E-05  0.2558E-05  0.1328E-06  0.9904E-02  0.8512E+01  0.0000E+00  0.1702E+02  0.0000E+00  0.2553E+02  0.0000E+00  0.0000E+00  0.0000E+00  0.0000E+00  0.0000E+00  0.2553E+02  0.0000E+00  0.0000E+00  0.0000E+00  0.0000E+00  0.0000E+00  0.0000E+00  0.0000E+00  0.0000E+00  0.0000E+00  0.0000E+00  0.0000E+00  0.0000E+00  0.0000E+00  0.0000E+00  0.0000E+00  0.0000E+00  0.0000E+00  0.0000E+00  0.0000E+00  0.0000E+00  0.0000E+00  0.0000E+00  0.0000E+00  0.0000E+00
