1
    SWAT  Sept '05 VERSION2005                                                                           0/ 0/   0      0: 0: 0

    General Input/Output section (file.cio): ArcSWAT 2.3.4                          
    2013/5/29 0:00:00ARCGIS-SWAT interface AV                                       
                                                                                    
         Number of years in run:    1
         Area of watershed:    11050.589 km2
1
    SWAT  Sept '05 VERSION2005                                                      

    General Input/Output section (file.cio): ArcSWAT 2.3.4                          
    2013/5/29 0:00:00ARCGIS-SWAT interface AV                                       
                                                                                    
Annual Summary for Watershed in year    1 of simulation

 UNIT                              PERCO   TILE                       WATER    SED    NO3    NO3    NO3    NO3        N       P       P
 TIME   PREC   SURQ   LATQ    GWQ   LATE      Q    SW     ET     PET  YIELD  YIELD   SURQ   LATQ   PERC   CROP  ORGANIC SOLUBLE ORGANIC
        (mm)   (mm)   (mm)   (mm)   (mm)   (mm)   (mm)   (mm)   (mm)   (mm) (t/ha)  -----------------(kg nutrient/ha)------------------
    1   0.04   0.00   0.00   0.00   0.00   0.00   3.85   0.16   1.80   0.00   0.00   0.00   0.00   0.00   0.00     0.00    0.00    0.00
    2   0.59   0.00   0.00   0.00   0.00   0.00   3.67   0.17   2.80   0.00   0.00   0.00   0.00   0.00   0.00     0.00    0.00    0.00
    3   1.23   0.00   0.00   0.00   0.01   0.00   3.53   0.20   4.71   0.00   0.00   0.00   0.00   0.00   0.00     0.00    0.00    0.00
    4   0.74   0.00   0.00   0.00   0.07   0.00   3.37   1.56   8.17   0.00   0.00   0.00   0.00   0.01   0.00     0.00    0.00    0.00
    5   8.38   0.00   0.00   0.00   3.11   0.00   3.25   1.85   7.83   0.00   0.00   0.00   0.00   0.55   0.00     0.00    0.00    0.00
    6  18.79   0.00   0.00   0.00  13.60   0.00   3.59   3.05   6.47   0.00   0.00   0.00   0.00   1.18   0.00     0.00    0.00    0.00
    7  12.23   0.00   0.00   0.00  12.21   0.00   3.47   3.78  10.58   0.00   0.00   0.00   0.00   0.34   0.00     0.00    0.00    0.00
    8  12.54   0.00   0.00   0.00  10.12   0.00   3.27   2.42  13.80   0.00   0.00   0.00   0.00   0.10   0.00     0.00    0.00    0.00
    9   1.13   0.00   0.00   0.00   0.95   0.00   3.14   0.25   8.60   0.00   0.00   0.00   0.00   0.01   0.00     0.00    0.00    0.00
   10   3.69   0.00   0.00   0.00   0.40   0.00   3.11   0.06   2.00   0.00   0.00   0.00   0.00   0.00   0.00     0.00    0.00    0.00
   11   0.00   0.00   0.00   0.00   0.00   0.00   3.11   0.00   0.45   0.00   0.00   0.00   0.00   0.00   0.00     0.00    0.00    0.00
   12   0.00   0.00   0.00   0.00   0.00   0.00   3.10   0.01   0.92   0.00   0.00   0.00   0.00   0.00   0.00     0.00    0.00    0.00

 1968  59.37   0.00   0.00   0.00  40.46   0.00   3.10  13.52  68.14   0.00   0.00   0.00   0.00   2.20   0.00     0.00    0.00    0.00
1
    SWAT  Sept '05 VERSION2005                                                      

    General Input/Output section (file.cio): ArcSWAT 2.3.4                          
    2013/5/29 0:00:00ARCGIS-SWAT interface AV                                       
                                                                                    
    FINAL VALUES

1
    SWAT  Sept '05 VERSION2005                                                      

    General Input/Output section (file.cio): ArcSWAT 2.3.4                          
    2013/5/29 0:00:00ARCGIS-SWAT interface AV                                       
                                                                                    
                                            Average Crop Values
                                 Crop 1              Crop 2              Crop 3
                             Yld      Biomass   Yld      Biomass      Yld      Biomass
                           (kg/ha)    (kg/ha)  (kg/ha)   (kg/ha)     (kg/ha)    (kg/ha)

 SWRN  HRU      1 Rot   1     0.0       0.0       0.0       0.0       0.0       0.0
 SWRN  HRU      2 Rot   1     0.0       0.0       0.0      13.6       0.0       0.0
 SWRN  HRU      3 Rot   1     0.0       0.0       0.0      13.6       0.0       0.0
 PAST  HRU      4 Rot   1     0.0       0.0       0.0       0.7       0.0       0.0
 PAST  HRU      5 Rot   1     0.0       0.0       0.0       0.7       0.0       0.0
 SWRN  HRU      6 Rot   1     0.0       0.0       0.0       0.3       0.0       0.0
 SWRN  HRU      7 Rot   1     0.0       0.0       0.0       0.3       0.0       0.0
 SWRN  HRU      8 Rot   1     0.0       0.0       0.0       0.3       0.0       0.0
 SWRN  HRU      9 Rot   1     0.0       0.0       0.0       0.0       0.0       0.0
 SWRN  HRU     10 Rot   1     0.0       0.0       0.0       0.4       0.0       0.0
 SWRN  HRU     11 Rot   1     0.0       0.0       0.0       0.4       0.0       0.0
 PAST  HRU     12 Rot   1     0.0       0.0       0.0       1.0       0.0       0.0
 PAST  HRU     13 Rot   1     0.0       0.0       0.0       1.0       0.0       0.0
 PAST  HRU     14 Rot   1     0.0       0.0       0.0       1.0       0.0       0.0
 SWRN  HRU     15 Rot   1     0.0       0.0       0.0       0.5       0.0       0.0
 SWRN  HRU     16 Rot   1     0.0       0.0       0.0       0.5       0.0       0.0
 SWRN  HRU     17 Rot   1     0.0       0.0       0.0       0.5       0.0       0.0
 SWRN  HRU     18 Rot   1     0.0       0.0       0.0       0.0       0.0       0.0
 SWRN  HRU     19 Rot   1     0.0       0.0       0.0       0.0       0.0       0.0
 SWRN  HRU     20 Rot   1     0.0       0.0       0.0       0.0       0.0       0.0
 SWRN  HRU     21 Rot   1     0.0       0.0       0.0       1.6       0.0       0.0
 SWRN  HRU     22 Rot   1     0.0       0.0       0.0       1.6       0.0       0.0
 SWRN  HRU     23 Rot   1     0.0       0.0       0.0       1.6       0.0       0.0
 PAST  HRU     24 Rot   1     0.0       0.0       0.0       0.0       0.0       0.0
 SWRN  HRU     25 Rot   1     0.0       0.0       0.0       0.0       0.0       0.0
 SWRN  HRU     26 Rot   1     0.0       0.0       0.0       0.0       0.0       0.0
 PAST  HRU     27 Rot   1     0.0       0.0       0.0       0.7       0.0       0.0
 PAST  HRU     28 Rot   1     0.0       0.0       0.0       0.7       0.0       0.0
 SWRN  HRU     29 Rot   1     0.0       0.0       0.0       0.3       0.0       0.0
 SWRN  HRU     30 Rot   1     0.0       0.0       0.0       0.3       0.0       0.0
 SWRN  HRU     31 Rot   1     0.0       0.0       0.0       0.3       0.0       0.0
 PAST  HRU     32 Rot   1     0.0       0.0       0.0       0.0       0.0       0.0
 PAST  HRU     33 Rot   1     0.0       0.0       0.0       0.0       0.0       0.0
 PAST  HRU     34 Rot   1     0.0       0.0       0.0       0.0       0.0       0.0
 PAST  HRU     35 Rot   1     0.0       0.0       0.0       1.1       0.0       0.0
 PAST  HRU     36 Rot   1     0.0       0.0       0.0       1.1       0.0       0.0
 SWRN  HRU     37 Rot   1     0.0       0.0       0.0       0.5       0.0       0.0
 SWRN  HRU     38 Rot   1     0.0       0.0       0.0       0.5       0.0       0.0
 PAST  HRU     39 Rot   1     0.0       0.0       0.0       0.0       0.0       0.0
 PAST  HRU     40 Rot   1     0.0       0.0       0.0       0.0       0.0       0.0
 PAST  HRU     41 Rot   1     0.0       0.0       0.0       0.0       0.0       0.0
 PAST  HRU     42 Rot   1     0.0       0.0       0.0       0.0       0.0       0.0
 PAST  HRU     43 Rot   1     0.0       0.0       0.0       0.0       0.0       0.0
 PAST  HRU     44 Rot   1     0.0       0.0       0.0       0.0       0.0       0.0
 SWRN  HRU     45 Rot   1     0.0       0.0       0.0       0.0       0.0       0.0
 SWRN  HRU     46 Rot   1     0.0       0.0       0.0       0.0       0.0       0.0
 SWRN  HRU     47 Rot   1     0.0       0.0       0.0       0.0       0.0       0.0
 SWRN  HRU     48 Rot   1     0.0       0.0       0.0       0.0       0.0       0.0
 PAST  HRU     49 Rot   1     0.0       0.0       0.0       0.0       0.0       0.0
 PAST  HRU     50 Rot   1     0.0       0.0       0.0       0.0       0.0       0.0
 SWRN  HRU     51 Rot   1     0.0       0.0       0.0       0.0       0.0       0.0
 SWRN  HRU     52 Rot   1     0.0       0.0       0.0       0.0       0.0       0.0
 SWRN  HRU     53 Rot   1     0.0       0.0       0.0       0.0       0.0       0.0
 SWRN  HRU     54 Rot   1     0.0       0.0       0.0       0.0       0.0       0.0
 SWRN  HRU     55 Rot   1     0.0       0.0       0.0       0.0       0.0       0.0
 PAST  HRU     56 Rot   1     0.0       0.0       0.0       0.0       0.0       0.0
 PAST  HRU     57 Rot   1     0.0       0.0       0.0       0.0       0.0       0.0
 SWRN  HRU     58 Rot   1     0.0       0.0       0.0       0.0       0.0       0.0
 SWRN  HRU     59 Rot   1     0.0       0.0       0.0       0.0       0.0       0.0
 SWRN  HRU     60 Rot   1     0.0       0.0       0.0       0.0       0.0       0.0
 PAST  HRU     61 Rot   1     0.0       0.0       0.0       0.0       0.0       0.0
 PAST  HRU     62 Rot   1     0.0       0.0       0.0       0.0       0.0       0.0
 SWRN  HRU     63 Rot   1     0.0       0.0       0.0       0.0       0.0       0.0
 SWRN  HRU     64 Rot   1     0.0       0.0       0.0       0.0       0.0       0.0
 SWRN  HRU     65 Rot   1     0.0       0.0       0.0       0.0       0.0       0.0
 SWRN  HRU     66 Rot   1     0.0       0.0       0.0       0.0       0.0       0.0
 SWRN  HRU     67 Rot   1     0.0       0.0       0.0       0.0       0.0       0.0
 PAST  HRU     68 Rot   1     0.0       0.0       0.0       0.0       0.0       0.0
 PAST  HRU     69 Rot   1     0.0       0.0       0.0       0.0       0.0       0.0
 PAST  HRU     70 Rot   1     0.0       0.0       0.0       0.0       0.0       0.0
 SWRN  HRU     71 Rot   1     0.0       0.0       0.0       0.0       0.0       0.0
 SWRN  HRU     72 Rot   1     0.0       0.0       0.0       0.0       0.0       0.0
 SWRN  HRU     73 Rot   1     0.0       0.0       0.0       0.0       0.0       0.0
 PAST  HRU     74 Rot   1     0.0       0.0       0.0       0.5       0.0       0.0
 PAST  HRU     75 Rot   1     0.0       0.0       0.0       0.5       0.0       0.0
 PAST  HRU     76 Rot   1     0.0       0.0       0.0       0.5       0.0       0.0
 PAST  HRU     77 Rot   1     0.0       0.0       0.0       0.5       0.0       0.0
 PAST  HRU     78 Rot   1     0.0       0.0       0.0       0.5       0.0       0.0
 SWRN  HRU     79 Rot   1     0.0       0.0       0.0       0.2       0.0       0.0
 SWRN  HRU     80 Rot   1     0.0       0.0       0.0       0.2       0.0       0.0
 SWRN  HRU     81 Rot   1     0.0       0.0       0.0       0.2       0.0       0.0
 PAST  HRU     82 Rot   1     0.0       0.0       0.0       0.4       0.0       0.0
 PAST  HRU     83 Rot   1     0.0       0.0       0.0       0.4       0.0       0.0
 PAST  HRU     84 Rot   1     0.0       0.0       0.0       0.4       0.0       0.0
 PAST  HRU     85 Rot   1     0.0       0.0       0.0       0.4       0.0       0.0
 PAST  HRU     86 Rot   1     0.0       0.0       0.0       0.4       0.0       0.0
 PAST  HRU     87 Rot   1     0.0       0.0       0.0       0.4       0.0       0.0
 PAST  HRU     88 Rot   1     0.0       0.0       0.0       0.4       0.0       0.0
 SWRN  HRU     89 Rot   1     0.0       0.0       0.0       0.2       0.0       0.0
 SWRN  HRU     90 Rot   1     0.0       0.0       0.0       0.2       0.0       0.0
 SWRN  HRU     91 Rot   1     0.0       0.0       0.0       0.2       0.0       0.0
 PAST  HRU     92 Rot   1     0.0       0.0       0.0       0.0       0.0       0.0
 PAST  HRU     93 Rot   1     0.0       0.0       0.0       0.0       0.0       0.0
 PAST  HRU     94 Rot   1     0.0       0.0       0.0       0.0       0.0       0.0
 SWRN  HRU     95 Rot   1     0.0       0.0       0.0       0.0       0.0       0.0
 SWRN  HRU     96 Rot   1     0.0       0.0       0.0       0.0       0.0       0.0
 PAST  HRU     97 Rot   1     0.0       0.0       0.0       0.0       0.0       0.0
 PAST  HRU     98 Rot   1     0.0       0.0       0.0       0.0       0.0       0.0
 PAST  HRU     99 Rot   1     0.0       0.0       0.0       0.0       0.0       0.0
 PAST  HRU    100 Rot   1     0.0       0.0       0.0       0.0       0.0       0.0
 PAST  HRU    101 Rot   1     0.0       0.0       0.0       0.0       0.0       0.0
 SWRN  HRU    102 Rot   1     0.0       0.0       0.0       0.0       0.0       0.0
 SWRN  HRU    103 Rot   1     0.0       0.0       0.0       0.0       0.0       0.0
 SWRN  HRU    104 Rot   1     0.0       0.0       0.0       0.0       0.0       0.0
 SWRN  HRU    105 Rot   1     0.0       0.0       0.0       0.0       0.0       0.0
 SWRN  HRU    106 Rot   1     0.0       0.0       0.0       0.0       0.0       0.0
 PAST  HRU    107 Rot   1     0.0       0.0       0.0       0.0       0.0       0.0
 PAST  HRU    108 Rot   1     0.0       0.0       0.0       0.0       0.0       0.0
 PAST  HRU    109 Rot   1     0.0       0.0       0.0       0.0       0.0       0.0
 SWRN  HRU    110 Rot   1     0.0       0.0       0.0       0.0       0.0       0.0
 SWRN  HRU    111 Rot   1     0.0       0.0       0.0       0.0       0.0       0.0
 PAST  HRU    112 Rot   1     0.0       0.0       0.0       0.0       0.0       0.0
 PAST  HRU    113 Rot   1     0.0       0.0       0.0       0.0       0.0       0.0
 PAST  HRU    114 Rot   1     0.0       0.0       0.0       0.0       0.0       0.0
 PAST  HRU    115 Rot   1     0.0       0.0       0.0       0.0       0.0       0.0
 PAST  HRU    116 Rot   1     0.0       0.0       0.0       0.0       0.0       0.0
 SWRN  HRU    117 Rot   1     0.0       0.0       0.0       0.0       0.0       0.0
 SWRN  HRU    118 Rot   1     0.0       0.0       0.0       0.0       0.0       0.0
 SWRN  HRU    119 Rot   1     0.0       0.0       0.0       0.0       0.0       0.0
 SWRN  HRU    120 Rot   1     0.0       0.0       0.0       0.0       0.0       0.0
 SWRN  HRU    121 Rot   1     0.0       0.0       0.0       0.0       0.0       0.0
 SWRN  HRU    122 Rot   1     0.0       0.0       0.0       0.0       0.0       0.0
 PAST  HRU    123 Rot   1     0.0       0.0       0.0       0.0       0.0       0.0
 PAST  HRU    124 Rot   1     0.0       0.0       0.0       0.0       0.0       0.0
 PAST  HRU    125 Rot   1     0.0       0.0       0.0       0.0       0.0       0.0
 SWRN  HRU    126 Rot   1     0.0       0.0       0.0       0.0       0.0       0.0
 SWRN  HRU    127 Rot   1     0.0       0.0       0.0       0.0       0.0       0.0
 SWRN  HRU    128 Rot   1     0.0       0.0       0.0       0.0       0.0       0.0
 PAST  HRU    129 Rot   1     0.0       0.0       0.0       0.0       0.0       0.0
 PAST  HRU    130 Rot   1     0.0       0.0       0.0       0.0       0.0       0.0
 PAST  HRU    131 Rot   1     0.0       0.0       0.0       0.0       0.0       0.0
 PAST  HRU    132 Rot   1     0.0       0.0       0.0       0.0       0.0       0.0
 PAST  HRU    133 Rot   1     0.0       0.0       0.0       0.0       0.0       0.0
 SWRN  HRU    134 Rot   1     0.0       0.0       0.0       0.0       0.0       0.0
 SWRN  HRU    135 Rot   1     0.0       0.0       0.0       0.0       0.0       0.0
 SWRN  HRU    136 Rot   1     0.0       0.0       0.0       0.0       0.0       0.0
 SWRN  HRU    137 Rot   1     0.0       0.0       0.0       0.0       0.0       0.0
 SWRN  HRU    138 Rot   1     0.0       0.0       0.0       0.0       0.0       0.0
 SWRN  HRU    139 Rot   1     0.0       0.0       0.0       0.0       0.0       0.0
 PAST  HRU    140 Rot   1     0.0       0.0       0.0       0.0       0.0       0.0
 PAST  HRU    141 Rot   1     0.0       0.0       0.0       0.0       0.0       0.0
 PAST  HRU    142 Rot   1     0.0       0.0       0.0       0.0       0.0       0.0
 SWRN  HRU    143 Rot   1     0.0       0.0       0.0       0.0       0.0       0.0
 SWRN  HRU    144 Rot   1     0.0       0.0       0.0       0.0       0.0       0.0
 SWRN  HRU    145 Rot   1     0.0       0.0       0.0       0.0       0.0       0.0
 PAST  HRU    146 Rot   1     0.0       0.0       0.0       0.0       0.0       0.0
 PAST  HRU    147 Rot   1     0.0       0.0       0.0       0.0       0.0       0.0
 PAST  HRU    148 Rot   1     0.0       0.0       0.0       0.0       0.0       0.0
 SWRN  HRU    149 Rot   1     0.0       0.0       0.0       0.0       0.0       0.0
 SWRN  HRU    150 Rot   1     0.0       0.0       0.0       0.0       0.0       0.0
 SWRN  HRU    151 Rot   1     0.0       0.0       0.0       0.0       0.0       0.0
 SWRN  HRU    152 Rot   1     0.0       0.0       0.0       0.0       0.0       0.0
 SWRN  HRU    153 Rot   1     0.0       0.0       0.0       0.0       0.0       0.0
 SWRN  HRU    154 Rot   1     0.0       0.0       0.0       0.0       0.0       0.0
 PAST  HRU    155 Rot   1     0.0       0.0       0.0       0.0       0.0       0.0
 PAST  HRU    156 Rot   1     0.0       0.0       0.0       0.0       0.0       0.0
 SWRN  HRU    157 Rot   1     0.0       0.0       0.0       0.0       0.0       0.0
 SWRN  HRU    158 Rot   1     0.0       0.0       0.0       0.0       0.0       0.0
 PAST  HRU    159 Rot   1     0.0       0.0       0.0       0.0       0.0       0.0
 PAST  HRU    160 Rot   1     0.0       0.0       0.0       0.0       0.0       0.0
 PAST  HRU    161 Rot   1     0.0       0.0       0.0       0.0       0.0       0.0
 PAST  HRU    162 Rot   1     0.0       0.0       0.0       0.0       0.0       0.0
 PAST  HRU    163 Rot   1     0.0       0.0       0.0       0.0       0.0       0.0
 PAST  HRU    164 Rot   1     0.0       0.0       0.0       0.0       0.0       0.0
 SWRN  HRU    165 Rot   1     0.0       0.0       0.0       0.0       0.0       0.0
 SWRN  HRU    166 Rot   1     0.0       0.0       0.0       0.0       0.0       0.0
 SWRN  HRU    167 Rot   1     0.0       0.0       0.0       0.0       0.0       0.0
 SWRN  HRU    168 Rot   1     0.0       0.0       0.0       0.0       0.0       0.0
 SWRN  HRU    169 Rot   1     0.0       0.0       0.0       0.0       0.0       0.0
 SWRN  HRU    170 Rot   1     0.0       0.0       0.0       0.0       0.0       0.0
 PAST  HRU    171 Rot   1     0.0       0.0       0.0       0.0       0.0       0.0
 PAST  HRU    172 Rot   1     0.0       0.0       0.0       0.0       0.0       0.0
 SWRN  HRU    173 Rot   1     0.0       0.0       0.0       0.0       0.0       0.0
 SWRN  HRU    174 Rot   1     0.0       0.0       0.0       0.0       0.0       0.0
 SWRN  HRU    175 Rot   1     0.0       0.0       0.0       0.0       0.0       0.0
 PAST  HRU    176 Rot   1     0.0       0.0       0.0       0.0       0.0       0.0
 PAST  HRU    177 Rot   1     0.0       0.0       0.0       0.0       0.0       0.0
 PAST  HRU    178 Rot   1     0.0       0.0       0.0       0.0       0.0       0.0
 SWRN  HRU    179 Rot   1     0.0       0.0       0.0       0.0       0.0       0.0
 SWRN  HRU    180 Rot   1     0.0       0.0       0.0       0.0       0.0       0.0
 SWRN  HRU    181 Rot   1     0.0       0.0       0.0       0.0       0.0       0.0
 PAST  HRU    182 Rot   1     0.0       0.0       0.0       0.0       0.0       0.0
 PAST  HRU    183 Rot   1     0.0       0.0       0.0       0.0       0.0       0.0
 SWRN  HRU    184 Rot   1     0.0       0.0       0.0       0.0       0.0       0.0
 SWRN  HRU    185 Rot   1     0.0       0.0       0.0       0.0       0.0       0.0
 SWRN  HRU    186 Rot   1     0.0       0.0       0.0       0.0       0.0       0.0
 PAST  HRU    187 Rot   1     0.0       0.0       0.0       0.0       0.0       0.0
 PAST  HRU    188 Rot   1     0.0       0.0       0.0       0.0       0.0       0.0
 PAST  HRU    189 Rot   1     0.0       0.0       0.0       0.0       0.0       0.0
 SWRN  HRU    190 Rot   1     0.0       0.0       0.0       0.0       0.0       0.0
 SWRN  HRU    191 Rot   1     0.0       0.0       0.0       0.0       0.0       0.0
 SWRN  HRU    192 Rot   1     0.0       0.0       0.0       0.0       0.0       0.0
 SWRN  HRU    193 Rot   1     0.0       0.0       0.0       0.0       0.0       0.0
 PAST  HRU    194 Rot   1     0.0       0.0       0.0       0.0       0.0       0.0
 PAST  HRU    195 Rot   1     0.0       0.0       0.0       0.0       0.0       0.0
 PAST  HRU    196 Rot   1     0.0       0.0       0.0       0.0       0.0       0.0
 PAST  HRU    197 Rot   1     0.0       0.0       0.0       0.0       0.0       0.0
 SWRN  HRU    198 Rot   1     0.0       0.0       0.0       0.0       0.0       0.0
 SWRN  HRU    199 Rot   1     0.0       0.0       0.0       0.0       0.0       0.0
 SWRN  HRU    200 Rot   1     0.0       0.0       0.0       0.0       0.0       0.0
 SWRN  HRU    201 Rot   1     0.0       0.0       0.0       0.0       0.0       0.0
 PAST  HRU    202 Rot   1     0.0       0.0       0.0       0.0       0.0       0.0
 PAST  HRU    203 Rot   1     0.0       0.0       0.0       0.0       0.0       0.0
 PAST  HRU    204 Rot   1     0.0       0.0       0.0       0.0       0.0       0.0
 SWRN  HRU    205 Rot   1     0.0       0.0       0.0       0.0       0.0       0.0
 SWRN  HRU    206 Rot   1     0.0       0.0       0.0       0.0       0.0       0.0
 SWRN  HRU    207 Rot   1     0.0       0.0       0.0       0.0       0.0       0.0
 SWRN  HRU    208 Rot   1     0.0       0.0       0.0       0.0       0.0       0.0
 SWRN  HRU    209 Rot   1     0.0       0.0       0.0       0.0       0.0       0.0
 SWRN  HRU    210 Rot   1     0.0       0.0       0.0       0.0       0.0       0.0
 PAST  HRU    211 Rot   1     0.0       0.0       0.0       0.0       0.0       0.0
 PAST  HRU    212 Rot   1     0.0       0.0       0.0       0.0       0.0       0.0
 PAST  HRU    213 Rot   1     0.0       0.0       0.0       0.0       0.0       0.0
 SWRN  HRU    214 Rot   1     0.0       0.0       0.0       0.0       0.0       0.0
 SWRN  HRU    215 Rot   1     0.0       0.0       0.0       0.0       0.0       0.0
 SWRN  HRU    216 Rot   1     0.0       0.0       0.0       0.0       0.0       0.0
 SWRN  HRU    217 Rot   1     0.0       0.0       0.0       0.0       0.0       0.0
 PAST  HRU    218 Rot   1     0.0       0.0       0.0       0.0       0.0       0.0
 SWRN  HRU    219 Rot   1     0.0       0.0       0.0       0.0       0.0       0.0
 SWRN  HRU    220 Rot   1     0.0       0.0       0.0       0.0       0.0       0.0
 SWRN  HRU    221 Rot   1     0.0       0.0       0.0       0.6       0.0       0.0
 SWRN  HRU    222 Rot   1     0.0       0.0       0.0       0.6       0.0       0.0
 PAST  HRU    223 Rot   1     0.0       0.0       0.0       0.0       0.0       0.0
 SWRN  HRU    224 Rot   1     0.0       0.0       0.0       0.0       0.0       0.0
 SWRN  HRU    225 Rot   1     0.0       0.0       0.0       0.0       0.0       0.0
 SWRN  HRU    226 Rot   1     0.0       0.0       0.0       0.0       0.0       0.0
 SWRN  HRU    227 Rot   1     0.0       0.0       0.0       0.0       0.0       0.0
 PAST  HRU    228 Rot   1     0.0       0.0       0.0       0.0       0.0       0.0
 PAST  HRU    229 Rot   1     0.0       0.0       0.0       0.0       0.0       0.0
 SWRN  HRU    230 Rot   1     0.0       0.0       0.0       0.0       0.0       0.0
 SWRN  HRU    231 Rot   1     0.0       0.0       0.0       0.0       0.0       0.0
 SWRN  HRU    232 Rot   1     0.0       0.0       0.0       0.0       0.0       0.0
 SWRN  HRU    233 Rot   1     0.0       0.0       0.0       0.0       0.0       0.0
 PAST  HRU    234 Rot   1     0.0       0.0       0.0       0.0       0.0       0.0
 PAST  HRU    235 Rot   1     0.0       0.0       0.0       0.0       0.0       0.0
 SWRN  HRU    236 Rot   1     0.0       0.0       0.0       0.0       0.0       0.0
 SWRN  HRU    237 Rot   1     0.0       0.0       0.0       0.0       0.0       0.0
 SWRN  HRU    238 Rot   1     0.0       0.0       0.0       0.0       0.0       0.0
 SWRN  HRU    239 Rot   1     0.0       0.0       0.0       0.0       0.0       0.0
 PAST  HRU    240 Rot   1     0.0       0.0       0.0       0.0       0.0       0.0
 PAST  HRU    241 Rot   1     0.0       0.0       0.0       0.0       0.0       0.0
 SWRN  HRU    242 Rot   1     0.0       0.0       0.0       0.0       0.0       0.0
 SWRN  HRU    243 Rot   1     0.0       0.0       0.0       0.0       0.0       0.0
 SWRN  HRU    244 Rot   1     0.0       0.0       0.0       0.0       0.0       0.0
 SWRN  HRU    245 Rot   1     0.0       0.0       0.0       0.0       0.0       0.0
 SWRN  HRU    246 Rot   1     0.0       0.0       0.0       0.0       0.0       0.0

    HRU STATISTICS

                AVE ANNUAL VALUES

 HRU  SUB CPMN SOIL    AREAkm2     CN    AWCmm USLE_LS   IRRmm AUTONkh AUTOPkh   MIXEF  PRECmm  SURQmm   GWQmm    ETmm   SEDth  NO3kgh ORGNkgh  BIOMth   YLDth
     1   1 SWRNHZMT    .586E+02   61.00   19.65    1.23    0.00    0.00    0.00    0.20    0.00    0.00    0.00    0.00    0.00    0.00    0.00    0.00    0.00
     2   1 SWRNZGT     .114E+02   80.00  132.00    3.67    0.00    0.00    0.00    0.20    0.00    0.00    0.00    0.00    0.00    0.00    0.00    0.00    0.00
     3   1 SWRNZGT     .222E+02   80.00  132.00    2.37    0.00    0.00    0.00    0.20    0.00    0.00    0.00    0.00    0.00    0.00    0.00    0.00    0.00
     4   2 PASTGSCDT   .891E+02   79.00  103.00    2.51    0.00    0.00    0.00    0.20    0.00    0.00    0.00    0.00    0.00    0.00    0.00    0.00    0.00
     5   2 PASTGSCDT   .888E+02   79.00  103.00    3.86    0.00    0.00    0.00    0.20    0.00    0.00    0.00    0.00    0.00    0.00    0.00    0.00    0.00
     6   2 SWRNGSCDT   .728E+01   74.00  103.00    3.88    0.00    0.00    0.00    0.20    0.00    0.00    0.00    0.00    0.00    0.00    0.00    0.00    0.00
     7   2 SWRNGSCDT   .335E+01   74.00  103.00    8.36    0.00    0.00    0.00    0.20    0.00    0.00    0.00    0.00    0.00    0.00    0.00    0.00    0.00
     8   2 SWRNGSCDT   .328E+01   74.00  103.00    1.96    0.00    0.00    0.00    0.20    0.00    0.00    0.00    0.00    0.00    0.00    0.00    0.00    0.00
     9   2 SWRNHZMT    .128E+02   61.00   19.65    1.42    0.00    0.00    0.00    0.20    0.00    0.00    0.00    0.00    0.00    0.00    0.00    0.00    0.00
    10   2 SWRNZGT     .184E+02   80.00  132.00    2.07    0.00    0.00    0.00    0.20    0.00    0.00    0.00    0.00    0.00    0.00    0.00    0.00    0.00
    11   2 SWRNZGT     .988E+01   80.00  132.00    3.58    0.00    0.00    0.00    0.20    0.00    0.00    0.00    0.00    0.00    0.00    0.00    0.00    0.00
    12   3 PASTGSCDT   .635E+02   79.00  103.00    4.14    0.00    0.00    0.00    0.20    0.00    0.00    0.00    0.00    0.00    0.00    0.00    0.00    0.00
    13   3 PASTGSCDT   .666E+02   79.00  103.00    8.73    0.00    0.00    0.00    0.20    0.00    0.00    0.00    0.00    0.00    0.00    0.00    0.00    0.00
    14   3 PASTGSCDT   .411E+02   79.00  103.00   15.43    0.00    0.00    0.00    0.20    0.00    0.00    0.00    0.00    0.00    0.00    0.00    0.00    0.00
    15   3 SWRNGSCDT   .322E+02   74.00  103.00    4.16    0.00    0.00    0.00    0.20    0.00    0.00    0.00    0.00    0.00    0.00    0.00    0.00    0.00
    16   3 SWRNGSCDT   .323E+02   74.00  103.00   16.47    0.00    0.00    0.00    0.20    0.00    0.00    0.00    0.00    0.00    0.00    0.00    0.00    0.00
    17   3 SWRNGSCDT   .341E+02   74.00  103.00    8.80    0.00    0.00    0.00    0.20    0.00    0.00    0.00    0.00    0.00    0.00    0.00    0.00    0.00
    18   3 SWRNGZCGT   .297E+02   80.00   35.20    4.19    0.00    0.00    0.00    0.20    0.00    0.00    0.00    0.00    0.00    0.00    0.00    0.00    0.00
    19   3 SWRNGZCGT   .372E+02   80.00   35.20    8.91    0.00    0.00    0.00    0.20    0.00    0.00    0.00    0.00    0.00    0.00    0.00    0.00    0.00
    20   3 SWRNGZCGT   .438E+02   80.00   35.20   16.42    0.00    0.00    0.00    0.20    0.00    0.00    0.00    0.00    0.00    0.00    0.00    0.00    0.00
    21   4 SWRNGSCDT   .411E+01   74.00  103.00   15.81    0.00    0.00    0.00    0.20    0.00    0.00    0.00    0.00    0.00    0.00    0.00    0.00    0.00
    22   4 SWRNGSCDT   .576E+01   74.00  103.00    8.78    0.00    0.00    0.00    0.20    0.00    0.00    0.00    0.00    0.00    0.00    0.00    0.00    0.00
    23   4 SWRNGSCDT   .534E+01   74.00  103.00    4.12    0.00    0.00    0.00    0.20    0.00    0.00    0.00    0.00    0.00    0.00    0.00    0.00    0.00
    24   5 PASTGSCDT   .754E+02   79.00  103.00    2.14    0.00    0.00    0.00    0.20    0.00    0.00    0.00    0.00    0.00    0.00    0.00    0.00    0.00
    25   5 SWRNGSCDT   .914E+02   74.00  103.00    2.07    0.00    0.00    0.00    0.20    0.00    0.00    0.00    0.00    0.00    0.00    0.00    0.00    0.00
    26   5 SWRNGSCDT   .437E+02   74.00  103.00    3.90    0.00    0.00    0.00    0.20    0.00    0.00    0.00    0.00    0.00    0.00    0.00    0.00    0.00
    27   6 PASTGSCDT   .155E+02   79.00  103.00    4.01    0.00    0.00    0.00    0.20    0.00    0.00    0.00    0.00    0.00    0.00    0.00    0.00    0.00
    28   6 PASTGSCDT   .115E+02   79.00  103.00    8.62    0.00    0.00    0.00    0.20    0.00    0.00    0.00    0.00    0.00    0.00    0.00    0.00    0.00
    29   6 SWRNGSCDT   .142E+02   74.00  103.00    8.83    0.00    0.00    0.00    0.20    0.00    0.00    0.00    0.00    0.00    0.00    0.00    0.00    0.00
    30   6 SWRNGSCDT   .119E+02   74.00  103.00    4.25    0.00    0.00    0.00    0.20    0.00    0.00    0.00    0.00    0.00    0.00    0.00    0.00    0.00
    31   6 SWRNGSCDT   .124E+02   74.00  103.00   16.05    0.00    0.00    0.00    0.20    0.00    0.00    0.00    0.00    0.00    0.00    0.00    0.00    0.00
    32   7 PASTGSCDT   .139E+03   79.00  103.00    2.76    0.00    0.00    0.00    0.20    0.00    0.00    0.00    0.00    0.00    0.00    0.00    0.00    0.00
    33   7 PASTGSCDT   .110E+03   79.00  103.00    8.59    0.00    0.00    0.00    0.20    0.00    0.00    0.00    0.00    0.00    0.00    0.00    0.00    0.00
    34   7 PASTGSCDT   .185E+03   79.00  103.00    3.88    0.00    0.00    0.00    0.20    0.00    0.00    0.00    0.00    0.00    0.00    0.00    0.00    0.00
    35   8 PASTGSCDT   .111E+02   79.00  103.00    3.77    0.00    0.00    0.00    0.20    0.00    0.00    0.00    0.00    0.00    0.00    0.00    0.00    0.00
    36   8 PASTGSCDT   .150E+02   79.00  103.00    2.58    0.00    0.00    0.00    0.20    0.00    0.00    0.00    0.00    0.00    0.00    0.00    0.00    0.00
    37   8 SWRNGSCDT   .613E+01   74.00  103.00    3.92    0.00    0.00    0.00    0.20    0.00    0.00    0.00    0.00    0.00    0.00    0.00    0.00    0.00
    38   8 SWRNGSCDT   .893E+01   74.00  103.00    1.73    0.00    0.00    0.00    0.20    0.00    0.00    0.00    0.00    0.00    0.00    0.00    0.00    0.00
    39   9 PASTGSCDT   .719E+02   79.00  103.00    3.64    0.00    0.00    0.00    0.20    0.00    0.00    0.00    0.00    0.00    0.00    0.00    0.00    0.00
    40   9 PASTGSCDT   .117E+03   79.00  103.00    2.58    0.00    0.00    0.00    0.20    0.00    0.00    0.00    0.00    0.00    0.00    0.00    0.00    0.00
    41  10 PASTGSCDT   .318E+02   79.00  103.00    1.71    0.00    0.00    0.00    0.20    0.00    0.00    0.00    0.00    0.00    0.00    0.00    0.00    0.00
    42  10 PASTGSCDT   .345E+02   79.00  103.00    3.97    0.00    0.00    0.00    0.20    0.00    0.00    0.00    0.00    0.00    0.00    0.00    0.00    0.00
    43  10 PASTGSCDT   .325E+02   79.00  103.00    8.86    0.00    0.00    0.00    0.20    0.00    0.00    0.00    0.00    0.00    0.00    0.00    0.00    0.00
    44  10 PASTGSCDT   .328E+02   79.00  103.00   16.40    0.00    0.00    0.00    0.20    0.00    0.00    0.00    0.00    0.00    0.00    0.00    0.00    0.00
    45  10 SWRNGSCDT   .119E+03   74.00  103.00    9.07    0.00    0.00    0.00    0.20    0.00    0.00    0.00    0.00    0.00    0.00    0.00    0.00    0.00
    46  10 SWRNGSCDT   .191E+03   74.00  103.00   16.93    0.00    0.00    0.00    0.20    0.00    0.00    0.00    0.00    0.00    0.00    0.00    0.00    0.00
    47  11 SWRNGSCDT   .149E+03   74.00  103.00   16.20    0.00    0.00    0.00    0.20    0.00    0.00    0.00    0.00    0.00    0.00    0.00    0.00    0.00
    48  11 SWRNGSCDT   .117E+03   74.00  103.00    9.02    0.00    0.00    0.00    0.20    0.00    0.00    0.00    0.00    0.00    0.00    0.00    0.00    0.00
    49  12 PASTGSCDT   .910E+02   79.00  103.00    3.84    0.00    0.00    0.00    0.20    0.00    0.00    0.00    0.00    0.00    0.00    0.00    0.00    0.00
    50  12 PASTGSCDT   .118E+03   79.00  103.00    2.37    0.00    0.00    0.00    0.20    0.00    0.00    0.00    0.00    0.00    0.00    0.00    0.00    0.00
    51  12 SWRNGSCDT   .557E+02   74.00  103.00   16.00    0.00    0.00    0.00    0.20    0.00    0.00    0.00    0.00    0.00    0.00    0.00    0.00    0.00
    52  12 SWRNGSCDT   .590E+02   74.00  103.00    8.91    0.00    0.00    0.00    0.20    0.00    0.00    0.00    0.00    0.00    0.00    0.00    0.00    0.00
    53  12 SWRNGSCDT   .534E+02   74.00  103.00    4.08    0.00    0.00    0.00    0.20    0.00    0.00    0.00    0.00    0.00    0.00    0.00    0.00    0.00
    54  13 SWRNGSCDT   .302E+02   74.00  103.00    9.10    0.00    0.00    0.00    0.20    0.00    0.00    0.00    0.00    0.00    0.00    0.00    0.00    0.00
    55  13 SWRNGSCDT   .703E+02   74.00  103.00   18.13    0.00    0.00    0.00    0.20    0.00    0.00    0.00    0.00    0.00    0.00    0.00    0.00    0.00
    56  14 PASTGSCDT   .538E+02   79.00  103.00    2.76    0.00    0.00    0.00    0.20    0.00    0.00    0.00    0.00    0.00    0.00    0.00    0.00    0.00
    57  14 PASTGSCDT   .521E+02   79.00  103.00    3.77    0.00    0.00    0.00    0.20    0.00    0.00    0.00    0.00    0.00    0.00    0.00    0.00    0.00
    58  14 SWRNGSCDT   .115E+03   74.00  103.00    4.05    0.00    0.00    0.00    0.20    0.00    0.00    0.00    0.00    0.00    0.00    0.00    0.00    0.00
    59  14 SWRNGSCDT   .106E+03   74.00  103.00    8.75    0.00    0.00    0.00    0.20    0.00    0.00    0.00    0.00    0.00    0.00    0.00    0.00    0.00
    60  14 SWRNGSCDT   .794E+02   74.00  103.00   15.68    0.00    0.00    0.00    0.20    0.00    0.00    0.00    0.00    0.00    0.00    0.00    0.00    0.00
    61  15 PASTLGCDT   .105E+01   79.00  125.90    2.69    0.00    0.00    0.00    0.20    0.00    0.00    0.00    0.00    0.00    0.00    0.00    0.00    0.00
    62  15 PASTLGCDT   .116E+01   79.00  125.90    3.82    0.00    0.00    0.00    0.20    0.00    0.00    0.00    0.00    0.00    0.00    0.00    0.00    0.00
    63  15 SWRNGSCDT   .316E+01   74.00  103.00   16.49    0.00    0.00    0.00    0.20    0.00    0.00    0.00    0.00    0.00    0.00    0.00    0.00    0.00
    64  15 SWRNGSCDT   .150E+01   74.00  103.00    9.20    0.00    0.00    0.00    0.20    0.00    0.00    0.00    0.00    0.00    0.00    0.00    0.00    0.00
    65  15 SWRNLGCDT   .942E+00   74.00  125.90    2.65    0.00    0.00    0.00    0.20    0.00    0.00    0.00    0.00    0.00    0.00    0.00    0.00    0.00
    66  15 SWRNLGCDT   .655E+00   74.00  125.90    3.79    0.00    0.00    0.00    0.20    0.00    0.00    0.00    0.00    0.00    0.00    0.00    0.00    0.00
    67  15 SWRNLGCDT   .873E+00   74.00  125.90   16.45    0.00    0.00    0.00    0.20    0.00    0.00    0.00    0.00    0.00    0.00    0.00    0.00    0.00
    68  16 PASTGSCDT   .251E+02   79.00  103.00    3.92    0.00    0.00    0.00    0.20    0.00    0.00    0.00    0.00    0.00    0.00    0.00    0.00    0.00
    69  16 PASTGSCDT   .154E+02   79.00  103.00    1.73    0.00    0.00    0.00    0.20    0.00    0.00    0.00    0.00    0.00    0.00    0.00    0.00    0.00
    70  16 PASTGSCDT   .149E+02   79.00  103.00    8.59    0.00    0.00    0.00    0.20    0.00    0.00    0.00    0.00    0.00    0.00    0.00    0.00    0.00
    71  16 SWRNGSCDT   .555E+02   74.00  103.00    4.10    0.00    0.00    0.00    0.20    0.00    0.00    0.00    0.00    0.00    0.00    0.00    0.00    0.00
    72  16 SWRNGSCDT   .510E+02   74.00  103.00    8.75    0.00    0.00    0.00    0.20    0.00    0.00    0.00    0.00    0.00    0.00    0.00    0.00    0.00
    73  16 SWRNGSCDT   .343E+02   74.00  103.00   15.41    0.00    0.00    0.00    0.20    0.00    0.00    0.00    0.00    0.00    0.00    0.00    0.00    0.00
    74  17 PASTGSCDT   .147E+02   79.00  103.00    4.03    0.00    0.00    0.00    0.20    0.00    0.00    0.00    0.00    0.00    0.00    0.00    0.00    0.00
    75  17 PASTGSCDT   .135E+02   79.00  103.00    8.78    0.00    0.00    0.00    0.20    0.00    0.00    0.00    0.00    0.00    0.00    0.00    0.00    0.00
    76  17 PASTGSCDT   .121E+02   79.00  103.00   16.25    0.00    0.00    0.00    0.20    0.00    0.00    0.00    0.00    0.00    0.00    0.00    0.00    0.00
    77  17 PASTLGCDT   .398E+01   79.00  125.90    3.50    0.00    0.00    0.00    0.20    0.00    0.00    0.00    0.00    0.00    0.00    0.00    0.00    0.00
    78  17 PASTLGCDT   .135E+02   79.00  125.90    1.98    0.00    0.00    0.00    0.20    0.00    0.00    0.00    0.00    0.00    0.00    0.00    0.00    0.00
    79  17 SWRNGSCDT   .526E+02   74.00  103.00    8.88    0.00    0.00    0.00    0.20    0.00    0.00    0.00    0.00    0.00    0.00    0.00    0.00    0.00
    80  17 SWRNGSCDT   .432E+02   74.00  103.00    4.19    0.00    0.00    0.00    0.20    0.00    0.00    0.00    0.00    0.00    0.00    0.00    0.00    0.00
    81  17 SWRNGSCDT   .596E+02   74.00  103.00   16.59    0.00    0.00    0.00    0.20    0.00    0.00    0.00    0.00    0.00    0.00    0.00    0.00    0.00
    82  18 PASTGSCDT   .977E+01   79.00  103.00   16.23    0.00    0.00    0.00    0.20    0.00    0.00    0.00    0.00    0.00    0.00    0.00    0.00    0.00
    83  18 PASTGSCDT   .945E+01   79.00  103.00    2.69    0.00    0.00    0.00    0.20    0.00    0.00    0.00    0.00    0.00    0.00    0.00    0.00    0.00
    84  18 PASTGSCDT   .122E+02   79.00  103.00    4.01    0.00    0.00    0.00    0.20    0.00    0.00    0.00    0.00    0.00    0.00    0.00    0.00    0.00
    85  18 PASTGSCDT   .108E+02   79.00  103.00    8.80    0.00    0.00    0.00    0.20    0.00    0.00    0.00    0.00    0.00    0.00    0.00    0.00    0.00
    86  18 PASTYGSCDT  .548E+01   79.00  126.00    8.65    0.00    0.00    0.00    0.20    0.00    0.00    0.00    0.00    0.00    0.00    0.00    0.00    0.00
    87  18 PASTYGSCDT  .458E+01   79.00  126.00    1.84    0.00    0.00    0.00    0.20    0.00    0.00    0.00    0.00    0.00    0.00    0.00    0.00    0.00
    88  18 PASTYGSCDT  .809E+01   79.00  126.00    3.94    0.00    0.00    0.00    0.20    0.00    0.00    0.00    0.00    0.00    0.00    0.00    0.00    0.00
    89  18 SWRNGSCDT   .326E+02   74.00  103.00    4.10    0.00    0.00    0.00    0.20    0.00    0.00    0.00    0.00    0.00    0.00    0.00    0.00    0.00
    90  18 SWRNGSCDT   .345E+02   74.00  103.00    8.83    0.00    0.00    0.00    0.20    0.00    0.00    0.00    0.00    0.00    0.00    0.00    0.00    0.00
    91  18 SWRNGSCDT   .350E+02   74.00  103.00   16.25    0.00    0.00    0.00    0.20    0.00    0.00    0.00    0.00    0.00    0.00    0.00    0.00    0.00
    92  19 PASTGSCDT   .103E+02   79.00  103.00   15.28    0.00    0.00    0.00    0.20    0.00    0.00    0.00    0.00    0.00    0.00    0.00    0.00    0.00
    93  19 PASTGSCDT   .122E+02   79.00  103.00    4.03    0.00    0.00    0.00    0.20    0.00    0.00    0.00    0.00    0.00    0.00    0.00    0.00    0.00
    94  19 PASTGSCDT   .110E+02   79.00  103.00    8.86    0.00    0.00    0.00    0.20    0.00    0.00    0.00    0.00    0.00    0.00    0.00    0.00    0.00
    95  19 SWRNGSCDT   .343E+02   74.00  103.00    9.04    0.00    0.00    0.00    0.20    0.00    0.00    0.00    0.00    0.00    0.00    0.00    0.00    0.00
    96  19 SWRNGSCDT   .453E+02   74.00  103.00   15.86    0.00    0.00    0.00    0.20    0.00    0.00    0.00    0.00    0.00    0.00    0.00    0.00    0.00
    97  20 PASTGSCDT   .170E+02   79.00  103.00    1.73    0.00    0.00    0.00    0.20    0.00    0.00    0.00    0.00    0.00    0.00    0.00    0.00    0.00
    98  20 PASTGSCDT   .133E+02   79.00  103.00    8.43    0.00    0.00    0.00    0.20    0.00    0.00    0.00    0.00    0.00    0.00    0.00    0.00    0.00
    99  20 PASTGSCDT   .272E+02   79.00  103.00    3.88    0.00    0.00    0.00    0.20    0.00    0.00    0.00    0.00    0.00    0.00    0.00    0.00    0.00
   100  20 PASTYGSCDT  .248E+02   79.00  126.00    3.84    0.00    0.00    0.00    0.20    0.00    0.00    0.00    0.00    0.00    0.00    0.00    0.00    0.00
   101  20 PASTYGSCDT  .139E+02   79.00  126.00    1.93    0.00    0.00    0.00    0.20    0.00    0.00    0.00    0.00    0.00    0.00    0.00    0.00    0.00
   102  20 SWRNGSCDT   .176E+02   74.00  103.00    8.73    0.00    0.00    0.00    0.20    0.00    0.00    0.00    0.00    0.00    0.00    0.00    0.00    0.00
   103  20 SWRNGSCDT   .134E+02   74.00  103.00   15.48    0.00    0.00    0.00    0.20    0.00    0.00    0.00    0.00    0.00    0.00    0.00    0.00    0.00
   104  20 SWRNGSCDT   .241E+02   74.00  103.00    3.99    0.00    0.00    0.00    0.20    0.00    0.00    0.00    0.00    0.00    0.00    0.00    0.00    0.00
   105  20 SWRNYGSCDT  .182E+02   74.00  126.00    4.01    0.00    0.00    0.00    0.20    0.00    0.00    0.00    0.00    0.00    0.00    0.00    0.00    0.00
   106  20 SWRNYGSCDT  .113E+02   74.00  126.00    8.57    0.00    0.00    0.00    0.20    0.00    0.00    0.00    0.00    0.00    0.00    0.00    0.00    0.00
   107  21 PASTGSCDT   .222E+02   79.00  103.00    1.80    0.00    0.00    0.00    0.20  234.05    0.00    0.00   50.49    0.00    0.00    0.00    0.00    0.00
   108  21 PASTGSCDT   .374E+02   79.00  103.00    3.92    0.00    0.00    0.00    0.20  234.05    0.00    0.00   50.49    0.00    0.00    0.00    0.00    0.00
   109  21 PASTGSCDT   .195E+02   79.00  103.00    8.43    0.00    0.00    0.00    0.20  234.05    0.00    0.00   50.49    0.00    0.00    0.00    0.00    0.00
   110  21 SWRNGSCDT   .500E+02   74.00  103.00    8.59    0.00    0.00    0.00    0.20  234.05    0.00    0.00   49.89    0.00    0.00    0.00    0.00    0.00
   111  21 SWRNGSCDT   .639E+02   74.00  103.00    4.08    0.00    0.00    0.00    0.20  234.05    0.00    0.00   49.89    0.00    0.00    0.00    0.00    0.00
   112  22 PASTGSCDT   .224E+02   79.00  103.00    3.94    0.00    0.00    0.00    0.20  234.61    0.00    0.00   52.28    0.00    0.00    0.00    0.00    0.00
   113  22 PASTGSCDT   .145E+02   79.00  103.00    8.62    0.00    0.00    0.00    0.20  234.61    0.00    0.00   52.28    0.00    0.00    0.00    0.00    0.00
   114  22 PASTYGSCDT  .154E+02   79.00  126.00    1.73    0.00    0.00    0.00    0.20  234.61    0.00    0.00   54.31    0.00    0.00    0.00    0.00    0.00
   115  22 PASTYGSCDT  .166E+02   79.00  126.00    8.59    0.00    0.00    0.00    0.20  234.61    0.00    0.00   54.31    0.00    0.00    0.00    0.00    0.00
   116  22 PASTYGSCDT  .246E+02   79.00  126.00    3.94    0.00    0.00    0.00    0.20  234.61    0.00    0.00   54.31    0.00    0.00    0.00    0.00    0.00
   117  22 SWRNGSCDT   .353E+02   74.00  103.00    8.86    0.00    0.00    0.00    0.20  234.61    0.00    0.00   52.08    0.00    0.00    0.00    0.00    0.00
   118  22 SWRNGSCDT   .311E+02   74.00  103.00    4.16    0.00    0.00    0.00    0.20  234.61    0.00    0.00   52.08    0.00    0.00    0.00    0.00    0.00
   119  22 SWRNGSCDT   .290E+02   74.00  103.00   15.33    0.00    0.00    0.00    0.20  234.61    0.00    0.00   52.08    0.00    0.00    0.00    0.00    0.00
   120  22 SWRNYGSCDT  .243E+02   74.00  126.00    8.80    0.00    0.00    0.00    0.20  234.61    0.00    0.00   54.30    0.00    0.00    0.00    0.00    0.00
   121  22 SWRNYGSCDT  .238E+02   74.00  126.00    4.14    0.00    0.00    0.00    0.20  234.61    0.00    0.00   54.30    0.00    0.00    0.00    0.00    0.00
   122  22 SWRNYGSCDT  .161E+02   74.00  126.00   15.00    0.00    0.00    0.00    0.20  234.61    0.00    0.00   54.30    0.00    0.00    0.00    0.00    0.00
   123  23 PASTGSCDT   .438E+02   79.00  103.00   15.41    0.00    0.00    0.00    0.20  233.99    0.00    0.00   46.75    0.00    0.00    0.00    0.00    0.00
   124  23 PASTGSCDT   .499E+02   79.00  103.00    3.99    0.00    0.00    0.00    0.20  233.99    0.00    0.00   46.75    0.00    0.00    0.00    0.00    0.00
   125  23 PASTGSCDT   .486E+02   79.00  103.00    8.91    0.00    0.00    0.00    0.20  233.99    0.00    0.00   46.75    0.00    0.00    0.00    0.00    0.00
   126  23 SWRNGSCDT   .115E+03   74.00  103.00   15.83    0.00    0.00    0.00    0.20  233.99    0.00    0.00   46.43    0.00    0.00    0.00    0.00    0.00
   127  23 SWRNGSCDT   .969E+02   74.00  103.00    9.04    0.00    0.00    0.00    0.20  233.99    0.00    0.00   46.43    0.00    0.00    0.00    0.00    0.00
   128  23 SWRNGSCDT   .622E+02   74.00  103.00    4.23    0.00    0.00    0.00    0.20  233.99    0.00    0.00   46.43    0.00    0.00    0.00    0.00    0.00
   129  24 PASTGSCDT   .717E+01   79.00  103.00    8.62    0.00    0.00    0.00    0.20  235.04    0.00    0.00   63.18    0.00    0.00    0.00    0.00    0.00
   130  24 PASTGSCDT   .957E+01   79.00  103.00    1.67    0.00    0.00    0.00    0.20  235.04    0.00    0.00   63.18    0.00    0.00    0.00    0.00    0.00
   131  24 PASTGSCDT   .106E+02   79.00  103.00    3.88    0.00    0.00    0.00    0.20  235.04    0.00    0.00   63.18    0.00    0.00    0.00    0.00    0.00
   132  24 PASTYGSCDT  .173E+02   79.00  126.00    3.97    0.00    0.00    0.00    0.20  235.04    0.00    0.00   64.33    0.00    0.00    0.00    0.00    0.00
   133  24 PASTYGSCDT  .114E+02   79.00  126.00    8.75    0.00    0.00    0.00    0.20  235.04    0.00    0.00   64.33    0.00    0.00    0.00    0.00    0.00
   134  24 SWRNGSCDT   .142E+02   74.00  103.00    4.19    0.00    0.00    0.00    0.20  235.04    0.00    0.00   63.17    0.00    0.00    0.00    0.00    0.00
   135  24 SWRNGSCDT   .201E+02   74.00  103.00    9.02    0.00    0.00    0.00    0.20  235.04    0.00    0.00   63.17    0.00    0.00    0.00    0.00    0.00
   136  24 SWRNGSCDT   .185E+02   74.00  103.00   14.98    0.00    0.00    0.00    0.20  235.04    0.00    0.00   63.17    0.00    0.00    0.00    0.00    0.00
   137  24 SWRNYGSCDT  .158E+02   74.00  126.00    9.02    0.00    0.00    0.00    0.20  235.04    0.00    0.00   64.28    0.00    0.00    0.00    0.00    0.00
   138  24 SWRNYGSCDT  .157E+02   74.00  126.00   15.16    0.00    0.00    0.00    0.20  235.04    0.00    0.00   64.28    0.00    0.00    0.00    0.00    0.00
   139  24 SWRNYGSCDT  .105E+02   74.00  126.00    4.21    0.00    0.00    0.00    0.20  235.04    0.00    0.00   64.28    0.00    0.00    0.00    0.00    0.00
   140  25 PASTGSCDT   .599E+02   79.00  103.00    3.92    0.00    0.00    0.00    0.20  234.59    0.00    0.00   58.16    0.00    0.00    0.00    0.00    0.00
   141  25 PASTGSCDT   .416E+02   79.00  103.00    1.69    0.00    0.00    0.00    0.20  234.59    0.00    0.00   58.16    0.00    0.00    0.00    0.00    0.00
   142  25 PASTGSCDT   .424E+02   79.00  103.00    8.73    0.00    0.00    0.00    0.20  234.59    0.00    0.00   58.16    0.00    0.00    0.00    0.00    0.00
   143  25 SWRNGSCDT   .396E+02   74.00  103.00    4.08    0.00    0.00    0.00    0.20  234.59    0.00    0.00   57.89    0.00    0.00    0.00    0.00    0.00
   144  25 SWRNGSCDT   .464E+02   74.00  103.00   15.51    0.00    0.00    0.00    0.20  234.59    0.00    0.00   57.89    0.00    0.00    0.00    0.00    0.00
   145  25 SWRNGSCDT   .453E+02   74.00  103.00    8.96    0.00    0.00    0.00    0.20  234.59    0.00    0.00   57.89    0.00    0.00    0.00    0.00    0.00
   146  26 PASTGSCDT   .451E+02   79.00  103.00    8.65    0.00    0.00    0.00    0.20  236.04    0.00    0.00   58.56    0.00    0.00    0.00    0.00    0.00
   147  26 PASTGSCDT   .802E+02   79.00  103.00    3.82    0.00    0.00    0.00    0.20  236.04    0.00    0.00   58.56    0.00    0.00    0.00    0.00    0.00
   148  26 PASTGSCDT   .712E+02   79.00  103.00    1.63    0.00    0.00    0.00    0.20  236.04    0.00    0.00   58.56    0.00    0.00    0.00    0.00    0.00
   149  26 SWRNGSCDT   .772E+02   74.00  103.00    4.08    0.00    0.00    0.00    0.20  236.04    0.00    0.00   58.56    0.00    0.00    0.00    0.00    0.00
   150  26 SWRNGSCDT   .753E+02   74.00  103.00   15.48    0.00    0.00    0.00    0.20  236.04    0.00    0.00   58.56    0.00    0.00    0.00    0.00    0.00
   151  26 SWRNGSCDT   .784E+02   74.00  103.00    8.88    0.00    0.00    0.00    0.20  236.04    0.00    0.00   58.56    0.00    0.00    0.00    0.00    0.00
   152  26 SWRNYGSCDT  .149E+02   74.00  126.00    4.27    0.00    0.00    0.00    0.20  236.04    0.00    0.00   58.96    0.00    0.00    0.00    0.00    0.00
   153  26 SWRNYGSCDT  .274E+02   74.00  126.00    9.07    0.00    0.00    0.00    0.20  236.04    0.00    0.00   58.96    0.00    0.00    0.00    0.00    0.00
   154  26 SWRNYGSCDT  .281E+02   74.00  126.00   15.08    0.00    0.00    0.00    0.20  236.04    0.00    0.00   58.96    0.00    0.00    0.00    0.00    0.00
   155  27 PASTGSCDT   .171E+03   79.00  103.00    2.24    0.00    0.00    0.00    0.20  238.30    0.00    0.00   50.65    0.00    0.00    0.00    0.00    0.00
   156  27 PASTGSCDT   .716E+02   79.00  103.00    3.52    0.00    0.00    0.00    0.20  238.30    0.00    0.00   50.65    0.00    0.00    0.00    0.00    0.00
   157  27 SWRNGSCDT   .688E+02   74.00  103.00    3.67    0.00    0.00    0.00    0.20  238.30    0.00    0.00   50.65    0.00    0.00    0.00    0.00    0.00
   158  27 SWRNGSCDT   .669E+02   74.00  103.00    1.76    0.00    0.00    0.00    0.20  238.30    0.00    0.00   50.65    0.00    0.00    0.00    0.00    0.00
   159  28 PASTGSCDT   .713E+01   79.00  103.00    2.37    0.00    0.00    0.00    0.20  235.35    0.00    0.00   57.62    0.00    0.00    0.00    0.00    0.00
   160  28 PASTGSCDT   .971E+01   79.00  103.00    4.08    0.00    0.00    0.00    0.20  235.35    0.00    0.00   57.62    0.00    0.00    0.00    0.00    0.00
   161  28 PASTGSCDT   .854E+01   79.00  103.00    8.67    0.00    0.00    0.00    0.20  235.35    0.00    0.00   57.62    0.00    0.00    0.00    0.00    0.00
   162  28 PASTYGSCDT  .859E+01   79.00  126.00    1.71    0.00    0.00    0.00    0.20  235.35    0.00    0.00   59.49    0.00    0.00    0.00    0.00    0.00
   163  28 PASTYGSCDT  .170E+02   79.00  126.00    4.05    0.00    0.00    0.00    0.20  235.35    0.00    0.00   59.49    0.00    0.00    0.00    0.00    0.00
   164  28 PASTYGSCDT  .113E+02   79.00  126.00    8.51    0.00    0.00    0.00    0.20  235.35    0.00    0.00   59.49    0.00    0.00    0.00    0.00    0.00
   165  28 SWRNGSCDT   .148E+02   74.00  103.00    4.14    0.00    0.00    0.00    0.20  235.35    0.00    0.00   57.10    0.00    0.00    0.00    0.00    0.00
   166  28 SWRNGSCDT   .180E+02   74.00  103.00    8.88    0.00    0.00    0.00    0.20  235.35    0.00    0.00   57.10    0.00    0.00    0.00    0.00    0.00
   167  28 SWRNGSCDT   .148E+02   74.00  103.00   15.13    0.00    0.00    0.00    0.20  235.35    0.00    0.00   57.10    0.00    0.00    0.00    0.00    0.00
   168  28 SWRNYGSCDT  .157E+02   74.00  126.00   14.55    0.00    0.00    0.00    0.20  235.35    0.00    0.00   59.12    0.00    0.00    0.00    0.00    0.00
   169  28 SWRNYGSCDT  .217E+02   74.00  126.00    4.23    0.00    0.00    0.00    0.20  235.35    0.00    0.00   59.12    0.00    0.00    0.00    0.00    0.00
   170  28 SWRNYGSCDT  .257E+02   74.00  126.00    8.80    0.00    0.00    0.00    0.20  235.35    0.00    0.00   59.12    0.00    0.00    0.00    0.00    0.00
   171  29 PASTGSCDT   .996E+02   79.00  103.00    2.41    0.00    0.00    0.00    0.20  235.73    0.00    0.00   52.81    0.00    0.00    0.00    0.00    0.00
   172  29 PASTGSCDT   .468E+02   79.00  103.00    3.58    0.00    0.00    0.00    0.20  235.73    0.00    0.00   52.81    0.00    0.00    0.00    0.00    0.00
   173  29 SWRNGSCDT   .415E+02   74.00  103.00    1.82    0.00    0.00    0.00    0.20  235.73    0.00    0.00   52.59    0.00    0.00    0.00    0.00    0.00
   174  29 SWRNGSCDT   .333E+02   74.00  103.00    3.92    0.00    0.00    0.00    0.20  235.73    0.00    0.00   52.59    0.00    0.00    0.00    0.00    0.00
   175  29 SWRNGSCDT   .300E+02   74.00  103.00    8.83    0.00    0.00    0.00    0.20  235.73    0.00    0.00   52.59    0.00    0.00    0.00    0.00    0.00
   176  30 PASTGSCDT   .294E+02   79.00  103.00    3.94    0.00    0.00    0.00    0.20  238.57    0.00    0.00   49.28    0.00    0.00    0.00    0.00    0.00
   177  30 PASTGSCDT   .211E+02   79.00  103.00    8.70    0.00    0.00    0.00    0.20  238.57    0.00    0.00   49.28    0.00    0.00    0.00    0.00    0.00
   178  30 PASTGSCDT   .168E+02   79.00  103.00    1.84    0.00    0.00    0.00    0.20  238.57    0.00    0.00   49.28    0.00    0.00    0.00    0.00    0.00
   179  30 SWRNGSCDT   .516E+02   74.00  103.00   16.13    0.00    0.00    0.00    0.20  238.57    0.00    0.00   49.28    0.00    0.00    0.00    0.00    0.00
   180  30 SWRNGSCDT   .409E+02   74.00  103.00    8.96    0.00    0.00    0.00    0.20  238.57    0.00    0.00   49.28    0.00    0.00    0.00    0.00    0.00
   181  30 SWRNGSCDT   .361E+02   74.00  103.00    4.01    0.00    0.00    0.00    0.20  238.57    0.00    0.00   49.28    0.00    0.00    0.00    0.00    0.00
   182  31 PASTGSCDT   .125E+03   79.00  103.00    3.75    0.00    0.00    0.00    0.20    0.00    0.00    0.00    0.00    0.00    0.00    0.00    0.00    0.00
   183  31 PASTGSCDT   .128E+03   79.00  103.00    2.76    0.00    0.00    0.00    0.20    0.00    0.00    0.00    0.00    0.00    0.00    0.00    0.00    0.00
   184  31 SWRNGSCDT   .563E+02   74.00  103.00    1.87    0.00    0.00    0.00    0.20    0.00    0.00    0.00    0.00    0.00    0.00    0.00    0.00    0.00
   185  31 SWRNGSCDT   .103E+03   74.00  103.00    3.90    0.00    0.00    0.00    0.20    0.00    0.00    0.00    0.00    0.00    0.00    0.00    0.00    0.00
   186  31 SWRNGSCDT   .645E+02   74.00  103.00    8.65    0.00    0.00    0.00    0.20    0.00    0.00    0.00    0.00    0.00    0.00    0.00    0.00    0.00
   187  32 PASTGSCDT   .313E+03   79.00  103.00    1.64    0.00    0.00    0.00    0.20    0.00    0.00    0.00    0.00    0.00    0.00    0.00    0.00    0.00
   188  32 PASTYGSCDT  .590E+02   79.00  126.00    1.65    0.00    0.00    0.00    0.20    0.00    0.00    0.00    0.00    0.00    0.00    0.00    0.00    0.00
   189  32 PASTYGSCDT  .337E+02   79.00  126.00    3.48    0.00    0.00    0.00    0.20    0.00    0.00    0.00    0.00    0.00    0.00    0.00    0.00    0.00
   190  32 SWRNGSCDT   .830E+02   74.00  103.00    2.07    0.00    0.00    0.00    0.20    0.00    0.00    0.00    0.00    0.00    0.00    0.00    0.00    0.00
   191  32 SWRNGSCDT   .454E+02   74.00  103.00    3.69    0.00    0.00    0.00    0.20    0.00    0.00    0.00    0.00    0.00    0.00    0.00    0.00    0.00
   192  32 SWRNYGSCDT  .226E+02   74.00  126.00    3.62    0.00    0.00    0.00    0.20    0.00    0.00    0.00    0.00    0.00    0.00    0.00    0.00    0.00
   193  32 SWRNYGSCDT  .218E+02   74.00  126.00    1.84    0.00    0.00    0.00    0.20    0.00    0.00    0.00    0.00    0.00    0.00    0.00    0.00    0.00
   194  33 PASTGSCDT   .234E+02   79.00  103.00    3.73    0.00    0.00    0.00    0.20    0.00    0.00    0.00    0.00    0.00    0.00    0.00    0.00    0.00
   195  33 PASTGSCDT   .343E+02   79.00  103.00    2.17    0.00    0.00    0.00    0.20    0.00    0.00    0.00    0.00    0.00    0.00    0.00    0.00    0.00
   196  33 PASTYGSCDT  .149E+02   79.00  126.00    3.71    0.00    0.00    0.00    0.20    0.00    0.00    0.00    0.00    0.00    0.00    0.00    0.00    0.00
   197  33 PASTYGSCDT  .184E+02   79.00  126.00    2.48    0.00    0.00    0.00    0.20    0.00    0.00    0.00    0.00    0.00    0.00    0.00    0.00    0.00
   198  33 SWRNGSCDT   .524E+02   74.00  103.00    1.71    0.00    0.00    0.00    0.20    0.00    0.00    0.00    0.00    0.00    0.00    0.00    0.00    0.00
   199  33 SWRNGSCDT   .603E+02   74.00  103.00    3.79    0.00    0.00    0.00    0.20    0.00    0.00    0.00    0.00    0.00    0.00    0.00    0.00    0.00
   200  33 SWRNGSCDT   .421E+02   74.00  103.00    8.86    0.00    0.00    0.00    0.20    0.00    0.00    0.00    0.00    0.00    0.00    0.00    0.00    0.00
   201  33 SWRNGSCDT   .493E+02   74.00  103.00   16.57    0.00    0.00    0.00    0.20    0.00    0.00    0.00    0.00    0.00    0.00    0.00    0.00    0.00
   202  34 PASTGSCDT   .347E+02   79.00  103.00    1.70    0.00    0.00    0.00    0.20    0.00    0.00    0.00    0.00    0.00    0.00    0.00    0.00    0.00
   203  34 PASTYGSCDT  .218E+02   79.00  126.00    3.71    0.00    0.00    0.00    0.20    0.00    0.00    0.00    0.00    0.00    0.00    0.00    0.00    0.00
   204  34 PASTYGSCDT  .412E+02   79.00  126.00    2.34    0.00    0.00    0.00    0.20    0.00    0.00    0.00    0.00    0.00    0.00    0.00    0.00    0.00
   205  34 SWRNGSCDT   .245E+02   74.00  103.00   14.93    0.00    0.00    0.00    0.20    0.00    0.00    0.00    0.00    0.00    0.00    0.00    0.00    0.00
   206  34 SWRNGSCDT   .295E+02   74.00  103.00    4.08    0.00    0.00    0.00    0.20    0.00    0.00    0.00    0.00    0.00    0.00    0.00    0.00    0.00
   207  34 SWRNGSCDT   .341E+02   74.00  103.00    8.91    0.00    0.00    0.00    0.20    0.00    0.00    0.00    0.00    0.00    0.00    0.00    0.00    0.00
   208  34 SWRNYGSCDT  .126E+02   74.00  126.00    8.75    0.00    0.00    0.00    0.20    0.00    0.00    0.00    0.00    0.00    0.00    0.00    0.00    0.00
   209  34 SWRNYGSCDT  .128E+02   74.00  126.00    4.12    0.00    0.00    0.00    0.20    0.00    0.00    0.00    0.00    0.00    0.00    0.00    0.00    0.00
   210  34 SWRNYGSCDT  .891E+01   74.00  126.00   15.63    0.00    0.00    0.00    0.20    0.00    0.00    0.00    0.00    0.00    0.00    0.00    0.00    0.00
   211  35 PASTGSCDT   .336E+03   79.00  103.00    1.44    0.00    0.00    0.00    0.20    0.00    0.00    0.00    0.00    0.00    0.00    0.00    0.00    0.00
   212  35 PASTYGSCDT  .316E+02   79.00  126.00    3.35    0.00    0.00    0.00    0.20    0.00    0.00    0.00    0.00    0.00    0.00    0.00    0.00    0.00
   213  35 PASTYGSCDT  .786E+02   79.00  126.00    2.44    0.00    0.00    0.00    0.20    0.00    0.00    0.00    0.00    0.00    0.00    0.00    0.00    0.00
   214  35 SWRNGSCDT   .551E+02   74.00  103.00    3.79    0.00    0.00    0.00    0.20    0.00    0.00    0.00    0.00    0.00    0.00    0.00    0.00    0.00
   215  35 SWRNGSCDT   .936E+02   74.00  103.00    1.95    0.00    0.00    0.00    0.20    0.00    0.00    0.00    0.00    0.00    0.00    0.00    0.00    0.00
   216  35 SWRNYGSCDT  .318E+02   74.00  126.00    1.80    0.00    0.00    0.00    0.20    0.00    0.00    0.00    0.00    0.00    0.00    0.00    0.00    0.00
   217  35 SWRNYGSCDT  .399E+02   74.00  126.00    3.69    0.00    0.00    0.00    0.20    0.00    0.00    0.00    0.00    0.00    0.00    0.00    0.00    0.00
   218  36 PASTGSCDT   .152E+03   79.00  103.00    1.85    0.00    0.00    0.00    0.20    0.00    0.00    0.00    0.00    0.00    0.00    0.00    0.00    0.00
   219  36 SWRNGSCDT   .156E+02   74.00  103.00    3.58    0.00    0.00    0.00    0.20    0.00    0.00    0.00    0.00    0.00    0.00    0.00    0.00    0.00
   220  36 SWRNGSCDT   .241E+02   74.00  103.00    2.31    0.00    0.00    0.00    0.20    0.00    0.00    0.00    0.00    0.00    0.00    0.00    0.00    0.00
   221  37 SWRNGSCDT   .418E+00   74.00  103.00    0.85    0.00    0.00    0.00    0.20    0.00    0.00    0.00    0.00    0.00    0.00    0.00    0.00    0.00
   222  37 SWRNHMFST   .307E+00   61.00   43.60    0.58    0.00    0.00    0.00    0.20    0.00    0.00    0.00    0.00    0.00    0.00    0.00    0.00    0.00
   223  38 PASTGSCDT   .117E+03   79.00  103.00    1.13    0.00    0.00    0.00    0.20    0.00    0.00    0.00    0.00    0.00    0.00    0.00    0.00    0.00
   224  38 SWRNGSCDT   .155E+02   74.00  103.00   14.55    0.00    0.00    0.00    0.20    0.00    0.00    0.00    0.00    0.00    0.00    0.00    0.00    0.00
   225  38 SWRNGSCDT   .158E+02   74.00  103.00    2.21    0.00    0.00    0.00    0.20    0.00    0.00    0.00    0.00    0.00    0.00    0.00    0.00    0.00
   226  38 SWRNGSCDT   .235E+02   74.00  103.00    8.91    0.00    0.00    0.00    0.20    0.00    0.00    0.00    0.00    0.00    0.00    0.00    0.00    0.00
   227  38 SWRNGSCDT   .206E+02   74.00  103.00    4.03    0.00    0.00    0.00    0.20    0.00    0.00    0.00    0.00    0.00    0.00    0.00    0.00    0.00
   228  39 PASTCDZZT   .857E+02   84.00  124.80    0.89    0.00    0.00    0.00    0.20    0.00    0.00    0.00    0.00    0.00    0.00    0.00    0.00    0.00
   229  39 PASTGSCDT   .212E+03   79.00  103.00    1.28    0.00    0.00    0.00    0.20    0.00    0.00    0.00    0.00    0.00    0.00    0.00    0.00    0.00
   230  39 SWRNGSCDT   .374E+02   74.00  103.00    3.79    0.00    0.00    0.00    0.20    0.00    0.00    0.00    0.00    0.00    0.00    0.00    0.00    0.00
   231  39 SWRNGSCDT   .741E+02   74.00  103.00    1.88    0.00    0.00    0.00    0.20    0.00    0.00    0.00    0.00    0.00    0.00    0.00    0.00    0.00
   232  39 SWRNYGSCDT  .538E+02   74.00  126.00    1.71    0.00    0.00    0.00    0.20    0.00    0.00    0.00    0.00    0.00    0.00    0.00    0.00    0.00
   233  39 SWRNYGSCDT  .374E+02   74.00  126.00    3.48    0.00    0.00    0.00    0.20    0.00    0.00    0.00    0.00    0.00    0.00    0.00    0.00    0.00
   234  40 PASTCDZZT   .204E+03   84.00  124.80    1.00    0.00    0.00    0.00    0.20    0.00    0.00    0.00    0.00    0.00    0.00    0.00    0.00    0.00
   235  40 PASTGSCDT   .331E+03   79.00  103.00    1.64    0.00    0.00    0.00    0.20    0.00    0.00    0.00    0.00    0.00    0.00    0.00    0.00    0.00
   236  40 SWRNGSCDT   .781E+02   74.00  103.00    2.65    0.00    0.00    0.00    0.20    0.00    0.00    0.00    0.00    0.00    0.00    0.00    0.00    0.00
   237  40 SWRNGSCDT   .794E+02   74.00  103.00    3.75    0.00    0.00    0.00    0.20    0.00    0.00    0.00    0.00    0.00    0.00    0.00    0.00    0.00
   238  40 SWRNYGSCDT  .471E+02   74.00  126.00    1.63    0.00    0.00    0.00    0.20    0.00    0.00    0.00    0.00    0.00    0.00    0.00    0.00    0.00
   239  40 SWRNYGSCDT  .446E+02   74.00  126.00    3.75    0.00    0.00    0.00    0.20    0.00    0.00    0.00    0.00    0.00    0.00    0.00    0.00    0.00
   240  41 PASTGSCDT   .358E+02   79.00  103.00    1.33    0.00    0.00    0.00    0.20    0.00    0.00    0.00    0.00    0.00    0.00    0.00    0.00    0.00
   241  41 PASTYGSCDT  .727E+02   79.00  126.00    1.82    0.00    0.00    0.00    0.20    0.00    0.00    0.00    0.00    0.00    0.00    0.00    0.00    0.00
   242  41 SWRNGSCDT   .121E+02   74.00  103.00    8.70    0.00    0.00    0.00    0.20    0.00    0.00    0.00    0.00    0.00    0.00    0.00    0.00    0.00
   243  41 SWRNGSCDT   .178E+02   74.00  103.00    2.62    0.00    0.00    0.00    0.20    0.00    0.00    0.00    0.00    0.00    0.00    0.00    0.00    0.00
   244  41 SWRNGSCDT   .181E+02   74.00  103.00    3.86    0.00    0.00    0.00    0.20    0.00    0.00    0.00    0.00    0.00    0.00    0.00    0.00    0.00
   245  41 SWRNYGSCDT  .321E+02   74.00  126.00    3.77    0.00    0.00    0.00    0.20    0.00    0.00    0.00    0.00    0.00    0.00    0.00    0.00    0.00
   246  41 SWRNYGSCDT  .440E+02   74.00  126.00    2.62    0.00    0.00    0.00    0.20    0.00    0.00    0.00    0.00    0.00    0.00    0.00    0.00    0.00



                AVE MONTHLY BASIN VALUES
                   SNOW                      WATER               SED
  MON     RAIN     FALL   SURF Q    LAT Q    YIELD       ET    YIELD      PET
          (MM)     (MM)     (MM)     (MM)     (MM)     (MM)   (T/HA)     (MM)
    1     0.04     0.04     0.00     0.00     0.00     0.16     0.00     1.80
    2     0.59     0.59     0.00     0.00     0.00     0.17     0.00     2.80
    3     1.23     1.23     0.00     0.00     0.00     0.20     0.00     4.71
    4     0.74     0.71     0.00     0.00     0.00     1.56     0.00     8.17
    5     8.38     5.38     0.00     0.00     0.00     1.85     0.00     7.83
    6    18.79     6.09     0.00     0.00     0.00     3.05     0.00     6.47
    7    12.23     1.33     0.00     0.00     0.00     3.78     0.00    10.58
    8    12.54     2.61     0.00     0.00     0.00     2.42     0.00    13.80
    9     1.13     0.19     0.00     0.00     0.00     0.25     0.00     8.60
   10     3.69     3.29     0.00     0.00     0.00     0.06     0.00     2.00
   11     0.00     0.00     0.00     0.00     0.00     0.00     0.00     0.45
   12     0.00     0.00     0.00     0.00     0.00     0.01     0.00     0.95

     AVE ANNUAL BASIN STRESS DAYS
               WATER STRESS DAYS =     0.00
               TEMPERATURE STRESS DAYS =    32.18
               NITROGEN STRESS DAYS =     0.00
               PHOSPHORUS STRESS DAYS =     0.03
1
    SWAT  Sept '05 VERSION2005                                                      

    General Input/Output section (file.cio): ArcSWAT 2.3.4                          
    2013/5/29 0:00:00ARCGIS-SWAT interface AV                                       
                                                                                    
         AVE ANNUAL BASIN VALUES

              PRECIP =     59.4 MM
              SNOW FALL =   21.46 MM
              SNOW MELT =     2.96 MM
              SUBLIMATION =    12.21 MM
              SURFACE RUNOFF Q =     0.00 MM
              LATERAL SOIL Q =    0.00 MM
              TILE Q =     0.00 MM
              GROUNDWATER (SHAL AQ) Q =     0.00 MM
              REVAP (SHAL AQ => SOIL/PLANTS) =    6.53 MM
              DEEP AQ RECHARGE =    16.18 MM
              TOTAL AQ RECHARGE =   40.46 MM
              TOTAL WATER YLD =     0.00 MM
              PERCOLATION OUT OF SOIL =   40.46 MM
              ET =     13.5 MM
              PET =     68.1MM
              TRANSMISSION LOSSES =     0.00 MM
              TOTAL SEDIMENT LOADING =     0.000 T/HA
              POND BUDGET
                   EVAPORATION =    0.000 MM
                   SEEPAGE =    0.000 MM
                   RAINFALL ON POOL =   0.000 MM
                   INFLOW
                        WATER =    0.000 MM
                        SEDIMENT =    0.000 T/HA
                   OUTFLOW
                        WATER =    0.000 MM
                        SEDIMENT =    0.000 T/HA
              RESERVOIR BUDGET
                   EVAPORATION =    0.000 MM
                   SEEPAGE =    0.000 MM
                   RAINFALL ON RESERVOIR =    0.000 MM
                   INFLOW
                        WATER =    0.000 MM
                        SEDIMENT =    0.000 T/HA
                   OUTFLOW
                        WATER =    0.000 MM
                        SEDIMENT =    0.000 T/HA
              YIELD LOSS FROM PONDS
                   WATER =   0.000 MM
                   SEDIMENT =   0.000 T/HA
              YIELD LOSS FROM RESERVOIRS
                   WATER =   0.000 MM
                   SEDIMENT =   0.000 T/HA
1
    SWAT  Sept '05 VERSION2005                                                      

    General Input/Output section (file.cio): ArcSWAT 2.3.4                          
    2013/5/29 0:00:00ARCGIS-SWAT interface AV                                       
                                                                                    
              AVE ANNUAL BASIN VALUES


              NUTRIENTS
                   ORGANIC N =     0.000 (KG/HA)
                   ORGANIC P =     0.000 (KG/HA)
                   NO3 YIELD (SQ) =     0.000 (KG/HA)
                   NO3 YIELD (SSQ) =    0.000 (KG/HA)
                   SOL P YIELD =    0.000 (KG/HA)
                   NO3 LEACHED =     2.199 (KG/HA)
                   P LEACHED =     0.000 (KG/HA)
                   N UPTAKE =     0.000 (KG/HA)
                   P UPTAKE =    0.000 (KG/HA)
                   NO3 YIELD (GWQ) =     0.000 (KG/HA)
                   ACTIVE TO SOLUTION P FLOW =     0.013 (KG/HA)
                   ACTIVE TO STABLE P FLOW =     0.003 (KG/HA)
                   N FERTILIZER APPLIED =    0.000 (KG/HA)
                   P FERTILIZER APPLIED =    0.000 (KG/HA)
                   N FIXATION =    0.000 (KG/HA)
                   DENITRIFICATION =    0.000 (KG/HA)
                   HUMUS MIN ON ACTIVE ORG N =     0.115 (KG/HA)
                   ACTIVE TO STABLE ORG N =    -0.001 (KG/HA)
                   HUMUS MIN ON ACTIVE ORG P =    0.020 (KG/HA)
                   MIN FROM FRESH ORG N =    0.000 (KG/HA)
                   MIN FROM FRESH ORG P =    0.000 (KG/HA)
                   NO3 IN RAINFALL =     0.409 (KG/HA)
                   INITIAL NO3 IN SOIL =      46.245 (KG/HA)
                   FINAL NO3 IN SOIL =       9.998 (KG/HA)
                   INITIAL ORG N IN SOIL =   30919.502 (KG/HA)
                   FINAL ORG N IN SOIL =    8114.992 (KG/HA)
                   INITIAL MIN P IN SOIL =     510.830 (KG/HA)
                   FINAL MIN P IN SOIL =     129.613 (KG/HA)
                   INITIAL ORG P IN SOIL =    3787.639 (KG/HA)
                   FINAL ORG P IN SOIL =     994.081 (KG/HA)
                   NO3 IN FERT =     0.000 (KG/HA)
                   AMMONIA IN FERT =     0.000 (KG/HA)
                   ORG N IN FERT =     0.000 (KG/HA)
                   MINERAL P IN FERT =     0.000 (KG/HA)
                   ORG P IN FERT =     0.000 (KG/HA)
                   N REMOVED IN YIELD =     0.000 (KG/HA)
                   P REMOVED IN YIELD =     0.000 (KG/HA)
                   AMMONIA VOLATILIZATION =     0.000 (KG/HA)
                   AMMONIA NITRIFICATION =    0.000 (KG/HA)
                   NO3 EVAP-LAYER 2 TO 1 =    3.455

                   DIE-GRO P Q =       0.0 (No/HA)
                   DIE-GRO LP Q =       0.0 (No/HA)
                   DIE-GRO P SED =      0.0 (No/HA)
                   DIE-GRO LP SED =      0.0 (No/HA)
                   BACT P RUNOFF =      0.0 (No/HA)
                   BACT LP RUNOFF =      0.0 (No/HA)
                   BACT P SEDIMENT =      0.0 (No/HA)
                   BACT LP SEDIMENT =      0.0 (No/HA)
                   BACT P INCORP =      0.0 (No/HA)
                   BACT LP INCORP =      0.0 (No/HA)

