1
    SWAT  May '02 VERSION2003                                                                            0/ 0/   0      0: 0: 0

    General Input/Output section (file.cio): ArcSWAT 2.3.4                          
    2013/5/29 0:00:00ARCGIS-SWAT interface AV                                       
                                                                                    


           RES  MON    VOLUMEm3  FLOW_INcms FLOW_OUTcms    PRECIPm3      EVAPm3   SEEPAGEm3  SED_INtons SED_OUTtons SED_CONCppm   ORGN_INkg  ORGN_OUTkg RES_ORGNppm   ORGP_INkg  ORGP_OUTkg RES_ORGPppm    NO3_INkg   NO3_OUTkg  RES_NO3ppm    NO2_INkg   NO2_OUTkg  RES_NO2ppm    NH3_INkg   NH3_OUTkg  RES_NH3ppm   MINP_INkg  MINP_OUTkg RES_MINPppm   CHLA_INkg  CHLA_OUTkgSECCHIDEPTHm   PEST_INmg  REACTPSTmg    VOLPSTmg  SETTLPSTmgRESUSP_PSTmgDIFFUSEPSTmgREACBEDPSTmg   BURYPSTmg  PEST_OUTmgPSTCNCWmg/m3PSTCNCBmg/m3
