1
    SWAT  May '02 VERSION2003                                                                            0/ 0/   0      0: 0: 0

    General Input/Output section (file.cio): ArcSWAT 2.3.4                          
    2013/5/29 0:00:00ARCGIS-SWAT interface AV                                       
                                                                                    


       SUB      GIS  MON   AREAkm2  PRECIPmm SNOMELTmm     PETmm      ETmm      SWmm    PERCmm    SURQmm    GW_Qmm    WYLDmm  SYLDt/ha ORGNkg/ha ORGPkg/haNSURQkg/ha SOLPkg/ha SEDPkg/ha LAT Q(mm)LATNO3kg/hGWNO3kg/haCHOLAmic/LCBODU mg/L DOXQ mg/L
BIGSUB   1        0    1.92246E+02     0.454     0.000   128.267     5.949     3.362     0.454     0.000     0.000     0.000     0.000     0.000     0.000     0.000     0.000     0.000     0.000     0.000     0.000 .00000E+00     0.000     0.000
BIGSUB   2        0    1.23299E+03     0.587     0.000   169.390    11.506     4.134     0.587     0.000     0.000     0.000     0.000     0.000     0.000     0.000     0.000     0.000     0.000     0.000     0.000 .00000E+00     0.000     0.000
BIGSUB   3        0    1.38037E+03     0.582     0.000   171.548    10.170     2.612     0.582     0.000     0.000     0.000     0.000     0.000     0.000     0.000     0.000     0.000     0.000     0.000     0.000 .00000E+00     0.000     0.000
BIGSUB   4        0    1.15208E+02     0.545     0.000   155.356    12.121     3.688     0.545     0.000     0.000     0.000     0.000     0.000     0.000     0.000     0.000     0.000     0.000     0.000     0.000 .00000E+00     0.000     0.000
BIGSUB   5        0    1.21043E+03     0.736     0.000   219.291    12.126     3.684     0.736     0.000     0.000     0.000     0.000     0.000     0.000     0.000     0.000     0.000     0.000     0.000     0.000 .00000E+00     0.000     0.000
BIGSUB   6        0    1.65523E+02     0.617     0.000   173.270    12.126     3.684     0.617     0.000     0.000     0.000     0.000     0.000     0.000     0.000     0.000     0.000     0.000     0.000     0.000 .00000E+00     0.000     0.000
BIGSUB   7        0    1.43383E+03     0.757     0.000   223.468    12.126     3.684     0.757     0.000     0.000     0.000     0.000     0.000     0.000     0.000     0.000     0.000     0.000     0.000     0.000 .00000E+00     0.000     0.000
BIGSUB   8        0    1.41143E+02     0.614     0.000   168.285    12.126     3.684     0.614     0.000     0.000     0.000     0.000     0.000     0.000     0.000     0.000     0.000     0.000     0.000     0.000 .00000E+00     0.000     0.000
BIGSUB   9        0    1.18844E+03     0.841     0.000   235.839    12.126     3.684     0.841     0.000     0.000     0.000     0.000     0.000     0.000     0.000     0.000     0.000     0.000     0.000     0.000 .00000E+00     0.000     0.000
BIGSUB  10        0    1.44145E+03     0.769     0.000   220.311    12.126     3.684     0.769     0.000     0.000     0.000     0.000     0.000     0.000     0.000     0.000     0.000     0.000     0.000     0.000 .00000E+00     0.000     0.000
BIGSUB  11        0    1.26654E+03     0.979     0.000   275.522    12.126     3.684     0.979     0.000     0.000     0.000     0.000     0.000     0.000     0.000     0.000     0.000     0.000     0.000     0.000 .00000E+00     0.000     0.000
BIGSUB  12        0    1.37734E+03     0.935     0.000   255.376    12.126     3.684     0.935     0.000     0.000     0.000     0.000     0.000     0.000     0.000     0.000     0.000     0.000     0.000     0.000 .00000E+00     0.000     0.000
BIGSUB  13        0    1.10047E+03     0.827     0.000   224.119    12.126     3.684     0.827     0.000     0.000     0.000     0.000     0.000     0.000     0.000     0.000     0.000     0.000     0.000     0.000 .00000E+00     0.000     0.000
BIGSUB  14        0    1.40591E+03     0.981     0.000   268.752    12.126     3.684     0.981     0.000     0.000     0.000     0.000     0.000     0.000     0.000     0.000     0.000     0.000     0.000     0.000 .00000E+00     0.000     0.000
BIGSUB  15        0    1.93438E+01     0.770     0.000   202.434    11.811     5.759     0.770     0.000     0.000     0.000     0.000     0.000     0.000     0.000     0.000     0.000     0.000     0.000     0.000 .00000E+00     0.000     0.000
BIGSUB  16        0    1.19614E+03     2.170     0.000    13.759     2.215    13.594     0.007     0.000     0.000     0.000     0.000     0.000     0.000     0.000     0.000     0.000     0.000     0.000     0.000 .00000E+00     0.000     0.000
BIGSUB  17        0    1.21300E+03     2.136     0.002    11.637     2.054    14.043     0.105     0.000     0.000     0.000     0.000     0.000     0.000     0.000     0.000     0.000     0.000     0.000     0.000 .00000E+00     0.000     0.000
BIGSUB  18        0    1.16251E+03     2.149     0.002    12.027     1.966    14.237     0.128     0.000     0.000     0.000     0.000     0.000     0.000     0.000     0.000     0.000     0.000     0.000     0.000 .00000E+00     0.000     0.000
BIGSUB  19        0    1.11313E+03     2.197     0.004    14.955     2.386    13.423     0.189     0.000     0.000     0.000     0.000     0.000     0.000     0.000     0.000     0.000     0.000     0.000     0.000 .00000E+00     0.000     0.000
BIGSUB  20        0    1.18095E+03     2.200     0.002    14.702     2.375    14.765     0.106     0.000     0.000     0.000     0.000     0.000     0.000     0.000     0.000     0.000     0.000     0.000     0.000 .00000E+00     0.000     0.000
BIGSUB  21        0    1.19302E+03     2.192     0.002    14.295     2.292    13.517     0.013     0.000     0.000     0.000     0.000     0.000     0.000     0.000     0.000     0.000     0.000     0.000     0.000 .00000E+00     0.000     0.000
BIGSUB  22        0    1.25311E+03     2.213     0.000    14.957     2.415    15.079     0.157     0.000     0.000     0.000     0.000     0.000     0.000     0.000     0.000     0.000     0.000     0.000     0.000 .00000E+00     0.000     0.000
BIGSUB  23        0    1.41604E+03     2.190     0.002    13.739     2.210    13.599     0.092     0.000     0.000     0.000     0.000     0.000     0.000     0.000     0.000     0.000     0.000     0.000     0.000 .00000E+00     0.000     0.000
BIGSUB  24        0    1.15058E+03     2.229     0.004    15.393     2.474    14.990     0.049     0.000     0.000     0.000     0.000     0.000     0.000     0.000     0.000     0.000     0.000     0.000     0.000 .00000E+00     0.000     0.000
BIGSUB  25        0    1.27520E+03     2.212     0.003    14.540     2.325    13.484     0.031     0.000     0.000     0.000     0.000     0.000     0.000     0.000     0.000     0.000     0.000     0.000     0.000 .00000E+00     0.000     0.000
BIGSUB  26        0    1.49767E+03     2.267     0.001    16.757     2.650    13.658     0.210     0.000     0.000     0.000     0.000     0.000     0.000     0.000     0.000     0.000     0.000     0.000     0.000 .00000E+00     0.000     0.000
BIGSUB  27        0    1.37782E+03     2.345     0.000    20.397     3.156    12.653     0.705     0.000     0.000     0.000     0.000     0.000     0.000     0.000     0.000     0.000     0.000     0.000     0.000 .00000E+00     0.000     0.000
BIGSUB  28        0    1.17287E+03     2.241     0.002    15.102     2.437    15.413     0.138     0.000     0.000     0.000     0.000     0.000     0.000     0.000     0.000     0.000     0.000     0.000     0.000 .00000E+00     0.000     0.000
BIGSUB  29        0    1.25132E+03     2.248     0.002    15.284     2.432    13.377     0.102     0.000     0.000     0.000     0.000     0.000     0.000     0.000     0.000     0.000     0.000     0.000     0.000 .00000E+00     0.000     0.000
BIGSUB  30        0    1.19591E+03     2.361     0.007    19.603     3.048    12.761     0.741     0.000     0.000     0.000     0.000     0.000     0.000     0.000     0.000     0.000     0.000     0.000     0.000 .00000E+00     0.000     0.000
BIGSUB  31        0    1.47638E+03     2.360     0.000    19.826     3.074    12.735     0.709     0.000     0.000     0.000     0.000     0.000     0.000     0.000     0.000     0.000     0.000     0.000     0.000 .00000E+00     0.000     0.000
BIGSUB  32        0    1.57879E+03     2.287     0.000    16.240     2.581    14.064     0.309     0.000     0.000     0.000     0.000     0.000     0.000     0.000     0.000     0.000     0.000     0.000     0.000 .00000E+00     0.000     0.000
BIGSUB  33        0    1.29520E+03     2.401     0.008    20.965     3.379    12.988     0.825     0.000     0.000     0.000     0.000     0.000     0.000     0.000     0.000     0.000     0.000     0.000     0.000 .00000E+00     0.000     0.000
BIGSUB  34        0    1.22005E+03     2.408     0.000    20.490     3.201    14.167     0.853     0.000     0.000     0.000     0.000     0.000     0.000     0.000     0.000     0.000     0.000     0.000     0.000 .00000E+00     0.000     0.000
BIGSUB  35        0    1.66620E+03     2.314     0.000    16.921     2.682    14.091     0.208     0.000     0.000     0.000     0.000     0.000     0.000     0.000     0.000     0.000     0.000     0.000     0.000 .00000E+00     0.000     0.000
BIGSUB  36        0    1.19123E+03     2.319     0.001    16.613     2.621    13.188     0.034     0.000     0.000     0.000     0.000     0.000     0.000     0.000     0.000     0.000     0.000     0.000     0.000 .00000E+00     0.000     0.000
BIGSUB  37        0    1.72450E+00     2.100     0.000     4.059     0.466    11.479     0.000     0.000     0.000     0.000     0.000     0.000     0.000     0.000     0.000     0.000     0.000     0.000     0.000 .00000E+00     0.000     0.000
BIGSUB  38        0    1.19296E+03     2.385     0.009    18.667     2.911    12.896     0.445     0.000     0.000     0.000     0.000     0.000     0.000     0.000     0.000     0.000     0.000     0.000     0.000 .00000E+00     0.000     0.000
BIGSUB  39        0    1.50092E+03     2.327     0.002    16.653     2.976    14.047     0.031     0.000     0.000     0.000     0.000     0.000     0.000     0.000     0.000     0.000     0.000     0.000     0.000 .00000E+00     0.000     0.000
BIGSUB  40        0    1.78498E+03     2.363     0.005    17.410     3.278    13.814     0.227     0.000     0.000     0.000     0.000     0.000     0.000     0.000     0.000     0.000     0.000     0.000     0.000 .00000E+00     0.000     0.000
BIGSUB  41        0    1.23265E+03     2.420     0.012    19.340     3.051    15.015     0.585     0.000     0.000     0.000     0.000     0.000     0.000     0.000     0.000     0.000     0.000     0.000     0.000 .00000E+00     0.000     0.000
BIGSUB   1        0    2.92246E+02     3.707     0.000   149.408     0.097     3.265     3.708     0.000     0.000     0.000     0.000     0.000     0.000     0.000     0.000     0.000     0.000     0.000     0.000 .00000E+00     0.000     0.000
BIGSUB   2        0    2.23299E+03     3.972     0.000   184.428     0.488     3.646     3.974     0.000     0.000     0.000     0.000     0.000     0.000     0.000     0.000     0.000     0.000     0.000     0.000 .00000E+00     0.000     0.000
BIGSUB   3        0    2.38037E+03     3.968     0.000   188.972     0.000     2.612     3.968     0.000     0.000     0.000     0.000     0.000     0.000     0.000     0.000     0.000     0.000     0.000     0.000 .00000E+00     0.000     0.000
BIGSUB   4        0    2.15208E+02     3.890     0.000   174.660     0.005     3.684     3.889     0.000     0.000     0.000     0.000     0.000     0.000     0.000     0.000     0.000     0.000     0.000     0.000 .00000E+00     0.000     0.000
BIGSUB   5        0    2.21043E+03     4.271     0.000   227.265     0.000     3.684     4.271     0.000     0.000     0.000     0.000     0.000     0.000     0.000     0.000     0.000     0.000     0.000     0.000 .00000E+00     0.000     0.000
BIGSUB   6        0    2.65523E+02     4.035     0.000   189.196     0.000     3.684     4.035     0.000     0.000     0.000     0.000     0.000     0.000     0.000     0.000     0.000     0.000     0.000     0.000 .00000E+00     0.000     0.000
BIGSUB   7        0    2.43383E+03     4.313     0.000   231.887     0.000     3.684     4.313     0.000     0.000     0.000     0.000     0.000     0.000     0.000     0.000     0.000     0.000     0.000     0.000 .00000E+00     0.000     0.000
BIGSUB   8        0    2.41143E+02     4.028     0.000   185.365     0.000     3.684     4.028     0.000     0.000     0.000     0.000     0.000     0.000     0.000     0.000     0.000     0.000     0.000     0.000 .00000E+00     0.000     0.000
BIGSUB   9        0    2.18844E+03     4.483     0.000   238.395     0.000     3.684     4.483     0.000     0.000     0.000     0.000     0.000     0.000     0.000     0.000     0.000     0.000     0.000     0.000 .00000E+00     0.000     0.000
BIGSUB  10        0    2.44145E+03     4.339     0.000   230.301     0.000     3.684     4.339     0.000     0.000     0.000     0.000     0.000     0.000     0.000     0.000     0.000     0.000     0.000     0.000 .00000E+00     0.000     0.000
BIGSUB  11        0    2.26654E+03     4.759     0.000   269.867     0.000     3.684     4.759     0.000     0.000     0.000     0.000     0.000     0.000     0.000     0.000     0.000     0.000     0.000     0.000 .00000E+00     0.000     0.000
BIGSUB  12        0    2.37734E+03     4.668     0.000   253.606     0.000     3.684     4.668     0.000     0.000     0.000     0.000     0.000     0.000     0.000     0.000     0.000     0.000     0.000     0.000 .00000E+00     0.000     0.000
BIGSUB  13        0    2.10047E+03     4.454     0.000   231.309     0.000     3.684     4.453     0.000     0.000     0.000     0.000     0.000     0.000     0.000     0.000     0.000     0.000     0.000     0.000 .00000E+00     0.000     0.000
BIGSUB  14        0    2.40591E+03     4.762     0.000   265.802     0.000     3.684     4.762     0.000     0.000     0.000     0.000     0.000     0.000     0.000     0.000     0.000     0.000     0.000     0.000 .00000E+00     0.000     0.000
BIGSUB  15        0    2.93438E+01     4.341     0.000   214.666     3.920     1.839     4.340     0.000     0.000     0.000     0.000     0.000     0.000     0.000     0.000     0.000     0.000     0.000     0.000 .00000E+00     0.000     0.000
BIGSUB  16        0    2.19614E+03     4.250     0.073    12.205     3.394    13.140     0.259     0.000     0.000     0.000     0.000     0.000     0.000     0.000     0.000     0.000     0.000     0.000     0.000 .00000E+00     0.000     0.000
BIGSUB  17        0    2.21300E+03     4.224     0.024    11.056     2.261    13.456     0.418     0.000     0.000     0.000     0.000     0.000     0.000     0.000     0.000     0.000     0.000     0.000     0.000 .00000E+00     0.000     0.000
BIGSUB  18        0    2.16251E+03     4.236     0.029    11.377     2.366    13.674     0.510     0.000     0.000     0.000     0.000     0.000     0.000     0.000     0.000     0.000     0.000     0.000     0.000 .00000E+00     0.000     0.000
BIGSUB  19        0    2.11313E+03     4.268     0.060    13.505     3.434    12.872     0.763     0.000     0.000     0.000     0.000     0.000     0.000     0.000     0.000     0.000     0.000     0.000     0.000 .00000E+00     0.000     0.000
BIGSUB  20        0    2.18095E+03     4.267     0.074    12.480     3.365    14.282     0.466     0.000     0.000     0.000     0.000     0.000     0.000     0.000     0.000     0.000     0.000     0.000     0.000 .00000E+00     0.000     0.000
BIGSUB  21        0    2.19302E+03     4.262     0.066    12.645     3.726    13.083     0.361     0.000     0.000     0.000     0.000     0.000     0.000     0.000     0.000     0.000     0.000     0.000     0.000 .00000E+00     0.000     0.000
BIGSUB  22        0    2.25311E+03     4.276     0.065    13.113     3.112    14.500     0.354     0.000     0.000     0.000     0.000     0.000     0.000     0.000     0.000     0.000     0.000     0.000     0.000 .00000E+00     0.000     0.000
BIGSUB  23        0    2.41604E+03     4.260     0.033    12.597     2.692    12.996     0.373     0.000     0.000     0.000     0.000     0.000     0.000     0.000     0.000     0.000     0.000     0.000     0.000 .00000E+00     0.000     0.000
BIGSUB  24        0    2.15058E+03     4.286     0.036    14.206     2.509    14.223     1.110     0.000     0.000     0.000     0.000     0.000     0.000     0.000     0.000     0.000     0.000     0.000     0.000 .00000E+00     0.000     0.000
BIGSUB  25        0    2.27520E+03     4.275     0.031    13.353     2.220    12.746     0.713     0.000     0.000     0.000     0.000     0.000     0.000     0.000     0.000     0.000     0.000     0.000     0.000 .00000E+00     0.000     0.000
BIGSUB  26        0    2.49767E+03     4.311     0.062    15.264     3.798    13.028     1.470     0.000     0.000     0.000     0.000     0.000     0.000     0.000     0.000     0.000     0.000     0.000     0.000 .00000E+00     0.000     0.000
BIGSUB  27        0    2.37782E+03     4.366     0.023    30.090     5.438     9.414     3.807     0.000     0.000     0.000     0.000     0.000     0.000     0.000     0.000     0.000     0.000     0.000     0.000 .00000E+00     0.000     0.000
BIGSUB  28        0    2.17287E+03     4.294     0.075    14.018     3.909    14.890     0.573     0.000     0.000     0.000     0.000     0.000     0.000     0.000     0.000     0.000     0.000     0.000     0.000 .00000E+00     0.000     0.000
BIGSUB  29        0    2.25132E+03     4.302     0.051    13.836     3.209    12.764     0.413     0.000     0.000     0.000     0.000     0.000     0.000     0.000     0.000     0.000     0.000     0.000     0.000 .00000E+00     0.000     0.000
BIGSUB  30        0    2.19591E+03     4.374     0.066    16.997     3.522    11.965     2.068     0.000     0.000     0.000     0.000     0.000     0.000     0.000     0.000     0.000     0.000     0.000     0.000 .00000E+00     0.000     0.000
BIGSUB  31        0    2.47638E+03     4.373     0.050    18.039     3.972    11.929     2.335     0.000     0.000     0.000     0.000     0.000     0.000     0.000     0.000     0.000     0.000     0.000     0.000 .00000E+00     0.000     0.000
BIGSUB  32        0    2.57879E+03     4.325     0.033    14.954     2.627    13.264     0.490     0.000     0.000     0.000     0.000     0.000     0.000     0.000     0.000     0.000     0.000     0.000     0.000 .00000E+00     0.000     0.000
BIGSUB  33        0    2.29520E+03     4.401     0.054    18.973     3.348    12.013     2.175     0.000     0.000     0.000     0.000     0.000     0.000     0.000     0.000     0.000     0.000     0.000     0.000 .00000E+00     0.000     0.000
BIGSUB  34        0    2.22005E+03     4.406     0.023    23.866     4.712    11.941     3.222     0.000     0.000     0.000     0.000     0.000     0.000     0.000     0.000     0.000     0.000     0.000     0.000 .00000E+00     0.000     0.000
BIGSUB  35        0    2.66620E+03     4.343     0.033    15.304     2.742    13.285     1.546     0.000     0.000     0.000     0.000     0.000     0.000     0.000     0.000     0.000     0.000     0.000     0.000 .00000E+00     0.000     0.000
BIGSUB  36        0    2.19123E+03     4.346     0.108    14.950     4.343    12.673     0.794     0.000     0.000     0.000     0.000     0.000     0.000     0.000     0.000     0.000     0.000     0.000     0.000 .00000E+00     0.000     0.000
BIGSUB  37        0    2.72450E+00     4.200     0.000     8.552     0.775    10.704     0.000     0.000     0.000     0.000     0.000     0.000     0.000     0.000     0.000     0.000     0.000     0.000     0.000 .00000E+00     0.000     0.000
BIGSUB  38        0    2.19296E+03     4.388     0.102    17.761     5.139    12.072     1.627     0.000     0.000     0.000     0.000     0.000     0.000     0.000     0.000     0.000     0.000     0.000     0.000 .00000E+00     0.000     0.000
BIGSUB  39        0    2.50092E+03     4.350     0.104    15.056     4.003    13.380     0.670     0.000     0.000     0.000     0.000     0.000     0.000     0.000     0.000     0.000     0.000     0.000     0.000 .00000E+00     0.000     0.000
BIGSUB  40        0    2.78498E+03     4.375     0.123    15.644     4.521    13.150     0.892     0.000     0.000     0.000     0.000     0.000     0.000     0.000     0.000     0.000     0.000     0.000     0.000 .00000E+00     0.000     0.000
BIGSUB  41        0    2.23265E+03     4.412     0.087    21.908     5.796    13.392     2.075     0.000     0.000     0.000     0.000     0.000     0.000     0.000     0.000     0.000     0.000     0.000     0.000 .00000E+00     0.000     0.000
BIGSUB   1        0    3.92246E+02     0.000     0.000   255.782     1.674     1.591     0.000     0.000     0.000     0.000     0.000     0.000     0.000     0.000     0.000     0.000     0.000     0.000     0.000 .00000E+00     0.000     0.000
BIGSUB   2        0    3.23299E+03     0.000     0.000   303.379     0.560     3.087     0.000     0.000     0.000     0.000     0.000     0.000     0.000     0.000     0.000     0.000     0.000     0.000     0.000 .00000E+00     0.000     0.000
BIGSUB   3        0    3.38037E+03     0.000     0.000   313.728     0.000     2.612     0.000     0.000     0.000     0.000     0.000     0.000     0.000     0.000     0.000     0.000     0.000     0.000     0.000 .00000E+00     0.000     0.000
BIGSUB   4        0    3.15208E+02     0.000     0.000   293.223     0.000     3.684     0.000     0.000     0.000     0.000     0.000     0.000     0.000     0.000     0.000     0.000     0.000     0.000     0.000 .00000E+00     0.000     0.000
BIGSUB   5        0    3.21043E+03     0.000     0.000   363.959     0.000     3.684     0.000     0.000     0.000     0.000     0.000     0.000     0.000     0.000     0.000     0.000     0.000     0.000     0.000 .00000E+00     0.000     0.000
BIGSUB   6        0    3.65523E+02     0.000     0.000   312.140     0.000     3.684     0.000     0.000     0.000     0.000     0.000     0.000     0.000     0.000     0.000     0.000     0.000     0.000     0.000 .00000E+00     0.000     0.000
BIGSUB   7        0    3.43383E+03     0.000     0.000   371.977     0.000     3.684     0.000     0.000     0.000     0.000     0.000     0.000     0.000     0.000     0.000     0.000     0.000     0.000     0.000 .00000E+00     0.000     0.000
BIGSUB   8        0    3.41143E+02     0.000     0.000   307.421     0.000     3.684     0.000     0.000     0.000     0.000     0.000     0.000     0.000     0.000     0.000     0.000     0.000     0.000     0.000 .00000E+00     0.000     0.000
BIGSUB   9        0    3.18844E+03     0.000     0.000   375.252     0.000     3.684     0.000     0.000     0.000     0.000     0.000     0.000     0.000     0.000     0.000     0.000     0.000     0.000     0.000 .00000E+00     0.000     0.000
BIGSUB  10        0    3.44145E+03     0.000     0.000   371.260     0.000     3.684     0.000     0.000     0.000     0.000     0.000     0.000     0.000     0.000     0.000     0.000     0.000     0.000     0.000 .00000E+00     0.000     0.000
BIGSUB  11        0    3.26654E+03     0.000     0.000   415.483     0.000     3.684     0.000     0.000     0.000     0.000     0.000     0.000     0.000     0.000     0.000     0.000     0.000     0.000     0.000 .00000E+00     0.000     0.000
BIGSUB  12        0    3.37734E+03     0.000     0.000   394.362     0.000     3.684     0.000     0.000     0.000     0.000     0.000     0.000     0.000     0.000     0.000     0.000     0.000     0.000     0.000 .00000E+00     0.000     0.000
BIGSUB  13        0    3.10047E+03     0.000     0.000   369.460     0.000     3.684     0.000     0.000     0.000     0.000     0.000     0.000     0.000     0.000     0.000     0.000     0.000     0.000     0.000 .00000E+00     0.000     0.000
BIGSUB  14        0    3.40591E+03     0.000     0.000   412.715     0.000     3.684     0.000     0.000     0.000     0.000     0.000     0.000     0.000     0.000     0.000     0.000     0.000     0.000     0.000 .00000E+00     0.000     0.000
BIGSUB  15        0    3.93438E+01     0.000     0.000   348.566     0.000     1.839     0.000     0.000     0.000     0.000     0.000     0.000     0.000     0.000     0.000     0.000     0.000     0.000     0.000 .00000E+00     0.000     0.000
BIGSUB  16        0    3.19614E+03     5.296     0.019    51.254     8.079     9.888     3.246     0.000     0.000     0.000     0.000     0.000     0.000     0.000     0.000     0.000     0.000     0.000     0.000 .00000E+00     0.000     0.000
BIGSUB  17        0    3.21300E+03     5.249     0.007    43.027     7.328    11.105     1.819     0.000     0.000     0.000     0.000     0.000     0.000     0.000     0.000     0.000     0.000     0.000     0.000 .00000E+00     0.000     0.000
BIGSUB  18        0    3.16251E+03     5.268     0.006    44.161     7.176    11.307     2.018     0.000     0.000     0.000     0.000     0.000     0.000     0.000     0.000     0.000     0.000     0.000     0.000 .00000E+00     0.000     0.000
BIGSUB  19        0    3.11313E+03     5.333     0.002    55.909     6.983     9.136     4.549     0.000     0.000     0.000     0.000     0.000     0.000     0.000     0.000     0.000     0.000     0.000     0.000 .00000E+00     0.000     0.000
BIGSUB  20        0    3.18095E+03     5.334     0.007    52.853     7.249    10.734     4.460     0.000     0.000     0.000     0.000     0.000     0.000     0.000     0.000     0.000     0.000     0.000     0.000 .00000E+00     0.000     0.000
BIGSUB  21        0    3.19302E+03     5.323     0.002    52.875     6.824     9.528     4.710     0.000     0.000     0.000     0.000     0.000     0.000     0.000     0.000     0.000     0.000     0.000     0.000 .00000E+00     0.000     0.000
BIGSUB  22        0    3.25311E+03     5.351     0.015    54.721     7.595    10.863     4.697     0.000     0.000     0.000     0.000     0.000     0.000     0.000     0.000     0.000     0.000     0.000     0.000 .00000E+00     0.000     0.000
BIGSUB  23        0    3.41604E+03     5.320     0.009    52.225     7.911     9.673     4.440     0.000     0.000     0.000     0.000     0.000     0.000     0.000     0.000     0.000     0.000     0.000     0.000 .00000E+00     0.000     0.000
BIGSUB  24        0    3.15058E+03     5.372     0.027    65.270     9.582     9.172     4.201     0.000     0.000     0.000     0.000     0.000     0.000     0.000     0.000     0.000     0.000     0.000     0.000 .00000E+00     0.000     0.000
BIGSUB  25        0    3.27520E+03     5.350     0.034    55.987     8.981     9.098     3.982     0.000     0.000     0.000     0.000     0.000     0.000     0.000     0.000     0.000     0.000     0.000     0.000 .00000E+00     0.000     0.000
BIGSUB  26        0    3.49767E+03     5.422     0.005    85.911     9.058     6.625     4.194     0.000     0.000     0.000     0.000     0.000     0.000     0.000     0.000     0.000     0.000     0.000     0.000 .00000E+00     0.000     0.000
BIGSUB  27        0    3.37782E+03     5.529     0.000   115.508     5.731     3.684     5.529     0.000     0.000     0.000     0.000     0.000     0.000     0.000     0.000     0.000     0.000     0.000     0.000 .00000E+00     0.000     0.000
BIGSUB  28        0    3.17287E+03     5.388     0.008    77.729    10.799     7.800     4.117     0.000     0.000     0.000     0.000     0.000     0.000     0.000     0.000     0.000     0.000     0.000     0.000 .00000E+00     0.000     0.000
BIGSUB  29        0    3.25132E+03     5.400     0.017    79.630     9.439     6.747     5.417     0.000     0.000     0.000     0.000     0.000     0.000     0.000     0.000     0.000     0.000     0.000     0.000 .00000E+00     0.000     0.000
BIGSUB  30        0    3.19591E+03     5.549     0.003   105.178     8.351     4.811     5.551     0.000     0.000     0.000     0.000     0.000     0.000     0.000     0.000     0.000     0.000     0.000     0.000 .00000E+00     0.000     0.000
BIGSUB  31        0    3.47638E+03     5.546     0.003   106.725     7.748     4.701     5.549     0.000     0.000     0.000     0.000     0.000     0.000     0.000     0.000     0.000     0.000     0.000     0.000 .00000E+00     0.000     0.000
BIGSUB  32        0    3.57879E+03     5.449     0.044    83.875    10.456     6.749     5.493     0.000     0.000     0.000     0.000     0.000     0.000     0.000     0.000     0.000     0.000     0.000     0.000 .00000E+00     0.000     0.000
BIGSUB  33        0    3.29520E+03     5.602     0.007   111.470     8.586     4.690     5.608     0.000     0.000     0.000     0.000     0.000     0.000     0.000     0.000     0.000     0.000     0.000     0.000 .00000E+00     0.000     0.000
BIGSUB  34        0    3.22005E+03     5.611     0.002   114.888     6.915     5.278     5.613     0.000     0.000     0.000     0.000     0.000     0.000     0.000     0.000     0.000     0.000     0.000     0.000 .00000E+00     0.000     0.000
BIGSUB  35        0    3.66620E+03     5.486     0.036    91.518     9.973     6.244     5.521     0.000     0.000     0.000     0.000     0.000     0.000     0.000     0.000     0.000     0.000     0.000     0.000 .00000E+00     0.000     0.000
BIGSUB  36        0    3.19123E+03     5.492     0.030    91.237     8.811     5.841     5.521     0.000     0.000     0.000     0.000     0.000     0.000     0.000     0.000     0.000     0.000     0.000     0.000 .00000E+00     0.000     0.000
BIGSUB  37        0    3.72450E+00     5.200     2.113    34.220     4.116     8.430     2.113     0.000     0.000     0.000     0.000     0.000     0.000     0.000     0.000     0.000     0.000     0.000     0.000 .00000E+00     0.000     0.000
BIGSUB  38        0    3.19296E+03     5.578     0.002   105.699     7.780     4.672     5.584     0.000     0.000     0.000     0.000     0.000     0.000     0.000     0.000     0.000     0.000     0.000     0.000 .00000E+00     0.000     0.000
BIGSUB  39        0    3.50092E+03     5.502     0.044    89.957     9.751     6.222     5.548     0.000     0.000     0.000     0.000     0.000     0.000     0.000     0.000     0.000     0.000     0.000     0.000 .00000E+00     0.000     0.000
BIGSUB  40        0    3.78498E+03     5.550     0.025    94.643     9.031     5.855     5.576     0.000     0.000     0.000     0.000     0.000     0.000     0.000     0.000     0.000     0.000     0.000     0.000 .00000E+00     0.000     0.000
BIGSUB  41        0    3.23265E+03     5.625     0.000   109.017     7.210     6.179     5.628     0.000     0.000     0.000     0.000     0.000     0.000     0.000     0.000     0.000     0.000     0.000     0.000 .00000E+00     0.000     0.000
BIGSUB   1        0    4.92246E+02     0.654     0.000   300.121     1.592     0.000     0.654     0.000     0.000     0.000     0.000     0.000     0.000     0.000     0.000     0.000     0.000     0.000     0.000 .00000E+00     0.000     0.000
BIGSUB   2        0    4.23299E+03     0.787     0.000   342.567     0.028     3.059     0.787     0.000     0.000     0.000     0.000     0.000     0.000     0.000     0.000     0.000     0.000     0.000     0.000 .00000E+00     0.000     0.000
BIGSUB   3        0    4.38037E+03     0.783     0.000   355.761     0.000     2.612     0.783     0.000     0.000     0.000     0.000     0.000     0.000     0.000     0.000     0.000     0.000     0.000     0.000 .00000E+00     0.000     0.000
BIGSUB   4        0    4.15208E+02     0.745     0.000   336.509     0.000     3.684     0.745     0.000     0.000     0.000     0.000     0.000     0.000     0.000     0.000     0.000     0.000     0.000     0.000 .00000E+00     0.000     0.000
BIGSUB   5        0    4.21043E+03     0.936     0.000   399.816     0.000     3.684     0.936     0.000     0.000     0.000     0.000     0.000     0.000     0.000     0.000     0.000     0.000     0.000     0.000 .00000E+00     0.000     0.000
BIGSUB   6        0    4.65523E+02     0.817     0.000   352.568     0.000     3.684     0.817     0.000     0.000     0.000     0.000     0.000     0.000     0.000     0.000     0.000     0.000     0.000     0.000 .00000E+00     0.000     0.000
BIGSUB   7        0    4.43383E+03     0.957     0.000   408.498     0.000     3.684     0.957     0.000     0.000     0.000     0.000     0.000     0.000     0.000     0.000     0.000     0.000     0.000     0.000 .00000E+00     0.000     0.000
BIGSUB   8        0    4.41143E+02     0.814     0.000   348.819     0.000     3.684     0.814     0.000     0.000     0.000     0.000     0.000     0.000     0.000     0.000     0.000     0.000     0.000     0.000 .00000E+00     0.000     0.000
BIGSUB   9        0    4.18844E+03     1.042     0.000   407.823     0.000     3.684     1.041     0.000     0.000     0.000     0.000     0.000     0.000     0.000     0.000     0.000     0.000     0.000     0.000 .00000E+00     0.000     0.000
BIGSUB  10        0    4.44145E+03     0.969     0.000   408.977     0.000     3.684     0.969     0.000     0.000     0.000     0.000     0.000     0.000     0.000     0.000     0.000     0.000     0.000     0.000 .00000E+00     0.000     0.000
BIGSUB  11        0    4.26654E+03     1.179     0.000   444.725     0.000     3.684     1.179     0.000     0.000     0.000     0.000     0.000     0.000     0.000     0.000     0.000     0.000     0.000     0.000 .00000E+00     0.000     0.000
BIGSUB  12        0    4.37734E+03     1.135     0.000   425.013     0.000     3.684     1.135     0.000     0.000     0.000     0.000     0.000     0.000     0.000     0.000     0.000     0.000     0.000     0.000 .00000E+00     0.000     0.000
BIGSUB  13        0    4.10047E+03     1.027     0.000   404.949     0.000     3.684     1.027     0.000     0.000     0.000     0.000     0.000     0.000     0.000     0.000     0.000     0.000     0.000     0.000 .00000E+00     0.000     0.000
BIGSUB  14        0    4.40591E+03     1.181     0.000   443.309     0.000     3.684     1.181     0.000     0.000     0.000     0.000     0.000     0.000     0.000     0.000     0.000     0.000     0.000     0.000 .00000E+00     0.000     0.000
BIGSUB  15        0    4.93438E+01     0.970     0.000   387.164     0.000     1.839     0.970     0.000     0.000     0.000     0.000     0.000     0.000     0.000     0.000     0.000     0.000     0.000     0.000 .00000E+00     0.000     0.000
BIGSUB  16        0    4.19614E+03    11.383     0.028    83.375     6.758     5.597     8.778     0.000     0.000     0.000     0.000     0.000     0.000     0.000     0.000     0.000     0.000     0.000     0.000 .00000E+00     0.000     0.000
BIGSUB  17        0    4.21300E+03    11.246     0.037    50.953     5.955     8.755     5.751     0.000     0.000     0.000     0.000     0.000     0.000     0.000     0.000     0.000     0.000     0.000     0.000 .00000E+00     0.000     0.000
BIGSUB  18        0    4.16251E+03    11.298     0.038    52.299     5.950     8.887     6.044     0.000     0.000     0.000     0.000     0.000     0.000     0.000     0.000     0.000     0.000     0.000     0.000 .00000E+00     0.000     0.000
BIGSUB  19        0    4.11313E+03    11.493     0.003    85.069     5.550     5.432     9.813     0.000     0.000     0.000     0.000     0.000     0.000     0.000     0.000     0.000     0.000     0.000     0.000 .00000E+00     0.000     0.000
BIGSUB  20        0    4.18095E+03    11.501     0.006    82.331     6.397     6.299     9.724     0.000     0.000     0.000     0.000     0.000     0.000     0.000     0.000     0.000     0.000     0.000     0.000 .00000E+00     0.000     0.000
BIGSUB  21        0    4.19302E+03    11.468     0.003    85.418     5.777     5.322    10.027     0.000     0.000     0.000     0.000     0.000     0.000     0.000     0.000     0.000     0.000     0.000     0.000 .00000E+00     0.000     0.000
BIGSUB  22        0    4.25311E+03    11.553     0.010    86.668     6.296     6.263     9.999     0.000     0.000     0.000     0.000     0.000     0.000     0.000     0.000     0.000     0.000     0.000     0.000 .00000E+00     0.000     0.000
BIGSUB  23        0    4.41604E+03    11.460     0.006    78.973     5.989     5.935     9.396     0.000     0.000     0.000     0.000     0.000     0.000     0.000     0.000     0.000     0.000     0.000     0.000 .00000E+00     0.000     0.000
BIGSUB  24        0    4.15058E+03    11.617     0.013   105.927     5.325     5.382    10.336     0.000     0.000     0.000     0.000     0.000     0.000     0.000     0.000     0.000     0.000     0.000     0.000 .00000E+00     0.000     0.000
BIGSUB  25        0    4.27520E+03    11.550     0.014   100.771     6.905     3.988    10.051     0.000     0.000     0.000     0.000     0.000     0.000     0.000     0.000     0.000     0.000     0.000     0.000 .00000E+00     0.000     0.000
BIGSUB  26        0    4.49767E+03    11.767     0.023   113.720     4.267     4.184    10.244     0.000     0.000     0.000     0.000     0.000     0.000     0.000     0.000     0.000     0.000     0.000     0.000 .00000E+00     0.000     0.000
BIGSUB  27        0    4.37782E+03    12.082     0.000   141.176     0.000     3.684    12.081     0.000     0.000     0.000     0.000     0.000     0.000     0.000     0.000     0.000     0.000     0.000     0.000 .00000E+00     0.000     0.000
BIGSUB  28        0    4.17287E+03    11.663     0.030   103.836     3.963     5.786     9.567     0.000     0.000     0.000     0.000     0.000     0.000     0.000     0.000     0.000     0.000     0.000     0.000 .00000E+00     0.000     0.000
BIGSUB  29        0    4.25132E+03    11.696     0.007   109.814     3.675     3.684    11.084     0.000     0.000     0.000     0.000     0.000     0.000     0.000     0.000     0.000     0.000     0.000     0.000 .00000E+00     0.000     0.000
BIGSUB  30        0    4.19591E+03    12.146     0.002   136.182     1.341     3.684    11.931     0.000     0.000     0.000     0.000     0.000     0.000     0.000     0.000     0.000     0.000     0.000     0.000 .00000E+00     0.000     0.000
BIGSUB  31        0    4.47638E+03    12.139     0.000   137.071     1.018     3.684    12.138     0.000     0.000     0.000     0.000     0.000     0.000     0.000     0.000     0.000     0.000     0.000     0.000 .00000E+00     0.000     0.000
BIGSUB  32        0    4.57879E+03    11.847     0.001   115.114     2.422     4.535    11.638     0.000     0.000     0.000     0.000     0.000     0.000     0.000     0.000     0.000     0.000     0.000     0.000 .00000E+00     0.000     0.000
BIGSUB  33        0    4.29520E+03    12.306     0.000   143.310     0.672     4.018    12.305     0.000     0.000     0.000     0.000     0.000     0.000     0.000     0.000     0.000     0.000     0.000     0.000 .00000E+00     0.000     0.000
BIGSUB  34        0    4.22005E+03    12.334     0.000   140.336     0.208     5.071    12.333     0.000     0.000     0.000     0.000     0.000     0.000     0.000     0.000     0.000     0.000     0.000     0.000 .00000E+00     0.000     0.000
BIGSUB  35        0    4.66620E+03    11.958     0.000   118.857     1.596     4.648    11.957     0.000     0.000     0.000     0.000     0.000     0.000     0.000     0.000     0.000     0.000     0.000     0.000 .00000E+00     0.000     0.000
BIGSUB  36        0    4.19123E+03    11.974     0.000   117.099     2.158     3.684    11.973     0.000     0.000     0.000     0.000     0.000     0.000     0.000     0.000     0.000     0.000     0.000     0.000 .00000E+00     0.000     0.000
BIGSUB  37        0    4.72450E+00    11.101    39.049    40.731     7.677     7.314    41.827     0.000     0.000     0.000     0.000     0.000     0.000     0.000     0.000     0.000     0.000     0.000     0.000 .00000E+00     0.000     0.000
BIGSUB  38        0    4.19296E+03    12.238     0.000   128.796     0.989     3.684    12.245     0.000     0.000     0.000     0.000     0.000     0.000     0.000     0.000     0.000     0.000     0.000     0.000 .00000E+00     0.000     0.000
BIGSUB  39        0    4.50092E+03    12.007     0.000   116.744     1.539     4.683    12.012     0.000     0.000     0.000     0.000     0.000     0.000     0.000     0.000     0.000     0.000     0.000     0.000 .00000E+00     0.000     0.000
BIGSUB  40        0    4.78498E+03    12.151     0.000   121.435     1.268     4.587    12.153     0.000     0.000     0.000     0.000     0.000     0.000     0.000     0.000     0.000     0.000     0.000     0.000 .00000E+00     0.000     0.000
BIGSUB  41        0    4.23265E+03    12.378     0.000   132.873     0.325     5.854    12.383     0.000     0.000     0.000     0.000     0.000     0.000     0.000     0.000     0.000     0.000     0.000     0.000 .00000E+00     0.000     0.000
BIGSUB   1        0    5.92246E+02     2.508     0.000   372.268     0.000     0.000     2.508     0.000     0.000     0.000     0.000     0.000     0.000     0.000     0.000     0.000     0.000     0.000     0.000 .00000E+00     0.000     0.000
BIGSUB   2        0    5.23299E+03     2.773     0.000   414.643     0.000     3.059     2.774     0.000     0.000     0.000     0.000     0.000     0.000     0.000     0.000     0.000     0.000     0.000     0.000 .00000E+00     0.000     0.000
BIGSUB   3        0    5.38037E+03     2.767     0.000   431.639     0.000     2.612     2.766     0.000     0.000     0.000     0.000     0.000     0.000     0.000     0.000     0.000     0.000     0.000     0.000 .00000E+00     0.000     0.000
BIGSUB   4        0    5.15208E+02     2.690     0.000   411.335     0.000     3.684     2.689     0.000     0.000     0.000     0.000     0.000     0.000     0.000     0.000     0.000     0.000     0.000     0.000 .00000E+00     0.000     0.000
BIGSUB   5        0    5.21043E+03     3.071     0.000   476.828     0.000     3.684     3.071     0.000     0.000     0.000     0.000     0.000     0.000     0.000     0.000     0.000     0.000     0.000     0.000 .00000E+00     0.000     0.000
BIGSUB   6        0    5.65523E+02     2.835     0.000   426.762     0.000     3.684     2.835     0.000     0.000     0.000     0.000     0.000     0.000     0.000     0.000     0.000     0.000     0.000     0.000 .00000E+00     0.000     0.000
BIGSUB   7        0    5.43383E+03     3.113     0.000   486.912     0.000     3.684     3.113     0.000     0.000     0.000     0.000     0.000     0.000     0.000     0.000     0.000     0.000     0.000     0.000 .00000E+00     0.000     0.000
BIGSUB   8        0    5.41143E+02     2.828     0.000   423.355     0.000     3.684     2.828     0.000     0.000     0.000     0.000     0.000     0.000     0.000     0.000     0.000     0.000     0.000     0.000 .00000E+00     0.000     0.000
BIGSUB   9        0    5.18844E+03     3.283     0.000   484.614     0.000     3.684     3.283     0.000     0.000     0.000     0.000     0.000     0.000     0.000     0.000     0.000     0.000     0.000     0.000 .00000E+00     0.000     0.000
BIGSUB  10        0    5.44145E+03     3.139     0.000   488.094     0.000     3.684     3.139     0.000     0.000     0.000     0.000     0.000     0.000     0.000     0.000     0.000     0.000     0.000     0.000 .00000E+00     0.000     0.000
BIGSUB  11        0    5.26654E+03     3.559     0.000   526.138     0.000     3.684     3.559     0.000     0.000     0.000     0.000     0.000     0.000     0.000     0.000     0.000     0.000     0.000     0.000 .00000E+00     0.000     0.000
BIGSUB  12        0    5.37734E+03     3.469     0.000   503.693     0.000     3.684     3.469     0.000     0.000     0.000     0.000     0.000     0.000     0.000     0.000     0.000     0.000     0.000     0.000 .00000E+00     0.000     0.000
BIGSUB  13        0    5.10047E+03     3.254     0.000   482.377     0.000     3.684     3.253     0.000     0.000     0.000     0.000     0.000     0.000     0.000     0.000     0.000     0.000     0.000     0.000 .00000E+00     0.000     0.000
BIGSUB  14        0    5.40591E+03     3.562     0.000   524.305     0.000     3.684     3.562     0.000     0.000     0.000     0.000     0.000     0.000     0.000     0.000     0.000     0.000     0.000     0.000 .00000E+00     0.000     0.000
BIGSUB  15        0    5.93438E+01     3.141     0.000   464.139     0.000     1.839     3.140     0.000     0.000     0.000     0.000     0.000     0.000     0.000     0.000     0.000     0.000     0.000     0.000 .00000E+00     0.000     0.000
BIGSUB  16        0    5.19614E+03    49.078     0.024   125.807     4.684     3.684    46.597     0.000     0.000     0.000     0.000     0.000     0.000     0.000     0.000     0.000     0.000     0.000     0.000 .00000E+00     0.000     0.000
BIGSUB  17        0    5.21300E+03    48.924     0.147    91.927    13.982     5.846    39.031     0.000     0.000     0.000     0.000     0.000     0.000     0.000     0.000     0.000     0.000     0.000     0.000 .00000E+00     0.000     0.000
BIGSUB  18        0    5.16251E+03    49.008     0.153    93.944    13.805     5.593    39.382     0.000     0.000     0.000     0.000     0.000     0.000     0.000     0.000     0.000     0.000     0.000     0.000 .00000E+00     0.000     0.000
BIGSUB  19        0    5.11313E+03    49.170     0.016   141.545     4.327     3.684    46.588     0.000     0.000     0.000     0.000     0.000     0.000     0.000     0.000     0.000     0.000     0.000     0.000 .00000E+00     0.000     0.000
BIGSUB  20        0    5.18095E+03    49.137     0.008   146.283     2.480     5.111    47.843     0.000     0.000     0.000     0.000     0.000     0.000     0.000     0.000     0.000     0.000     0.000     0.000 .00000E+00     0.000     0.000
BIGSUB  21        0    5.19302E+03    49.110     0.008   138.884     3.661     3.684    47.084     0.000     0.000     0.000     0.000     0.000     0.000     0.000     0.000     0.000     0.000     0.000     0.000 .00000E+00     0.000     0.000
BIGSUB  22        0    5.25311E+03    49.180     0.006   148.421     1.846     5.470    48.124     0.000     0.000     0.000     0.000     0.000     0.000     0.000     0.000     0.000     0.000     0.000     0.000 .00000E+00     0.000     0.000
BIGSUB  23        0    5.41604E+03    49.102     0.006   140.595     3.411     3.684    47.940     0.000     0.000     0.000     0.000     0.000     0.000     0.000     0.000     0.000     0.000     0.000     0.000 .00000E+00     0.000     0.000
BIGSUB  24        0    5.15058E+03    49.233     0.004   156.105     0.438     5.381    48.793     0.000     0.000     0.000     0.000     0.000     0.000     0.000     0.000     0.000     0.000     0.000     0.000 .00000E+00     0.000     0.000
BIGSUB  25        0    5.27520E+03    49.177     0.004   149.904     0.624     3.684    48.855     0.000     0.000     0.000     0.000     0.000     0.000     0.000     0.000     0.000     0.000     0.000     0.000 .00000E+00     0.000     0.000
BIGSUB  26        0    5.49767E+03    49.359     0.006   165.109     0.456     4.090    48.993     0.000     0.000     0.000     0.000     0.000     0.000     0.000     0.000     0.000     0.000     0.000     0.000 .00000E+00     0.000     0.000
BIGSUB  27        0    5.37782E+03    49.661     0.000   189.268     0.000     3.684    49.657     0.000     0.000     0.000     0.000     0.000     0.000     0.000     0.000     0.000     0.000     0.000     0.000 .00000E+00     0.000     0.000
BIGSUB  28        0    5.17287E+03    49.272     0.012   153.684     0.744     5.815    48.643     0.000     0.000     0.000     0.000     0.000     0.000     0.000     0.000     0.000     0.000     0.000     0.000 .00000E+00     0.000     0.000
BIGSUB  29        0    5.25132E+03    49.339     0.000   154.847     0.000     3.684    49.336     0.000     0.000     0.000     0.000     0.000     0.000     0.000     0.000     0.000     0.000     0.000     0.000 .00000E+00     0.000     0.000
BIGSUB  30        0    5.19591E+03    49.674     0.000   183.179     0.000     3.684    49.671     0.000     0.000     0.000     0.000     0.000     0.000     0.000     0.000     0.000     0.000     0.000     0.000 .00000E+00     0.000     0.000
BIGSUB  31        0    5.47638E+03    49.669     0.000   185.152     0.000     3.684    49.665     0.000     0.000     0.000     0.000     0.000     0.000     0.000     0.000     0.000     0.000     0.000     0.000 .00000E+00     0.000     0.000
BIGSUB  32        0    5.57879E+03    49.425     0.000   161.114     0.128     4.482    49.346     0.000     0.000     0.000     0.000     0.000     0.000     0.000     0.000     0.000     0.000     0.000     0.000 .00000E+00     0.000     0.000
BIGSUB  33        0    5.29520E+03    49.808     0.000   191.781     0.476     3.555    49.792     0.000     0.000     0.000     0.000     0.000     0.000     0.000     0.000     0.000     0.000     0.000     0.000 .00000E+00     0.000     0.000
BIGSUB  34        0    5.22005E+03    49.831     0.000   188.223     1.450     3.682    49.766     0.000     0.000     0.000     0.000     0.000     0.000     0.000     0.000     0.000     0.000     0.000     0.000 .00000E+00     0.000     0.000
BIGSUB  35        0    5.66620E+03    49.517     0.000   165.049     0.206     4.521    49.434     0.000     0.000     0.000     0.000     0.000     0.000     0.000     0.000     0.000     0.000     0.000     0.000 .00000E+00     0.000     0.000
BIGSUB  36        0    5.19123E+03    49.531     0.000   162.992     0.000     3.684    49.528     0.000     0.000     0.000     0.000     0.000     0.000     0.000     0.000     0.000     0.000     0.000     0.000 .00000E+00     0.000     0.000
BIGSUB  37        0    5.72450E+00    48.803    71.583    60.182    29.552     7.271   118.183     0.000     0.000     0.000     0.000     0.000     0.000     0.000     0.000     0.000     0.000     0.000     0.000 .00000E+00     0.000     0.000
BIGSUB  38        0    5.19296E+03    49.726     0.000   175.903     0.000     3.684    49.754     0.000     0.000     0.000     0.000     0.000     0.000     0.000     0.000     0.000     0.000     0.000     0.000 .00000E+00     0.000     0.000
BIGSUB  39        0    5.50092E+03    49.541     0.000   162.678     0.320     4.420    49.503     0.000     0.000     0.000     0.000     0.000     0.000     0.000     0.000     0.000     0.000     0.000     0.000 .00000E+00     0.000     0.000
BIGSUB  40        0    5.78498E+03    49.671     0.000   167.823     0.578     4.044    49.643     0.000     0.000     0.000     0.000     0.000     0.000     0.000     0.000     0.000     0.000     0.000     0.000 .00000E+00     0.000     0.000
BIGSUB  41        0    5.23265E+03    49.849     0.000   180.366     1.212     4.791    49.720     0.000     0.000     0.000     0.000     0.000     0.000     0.000     0.000     0.000     0.000     0.000     0.000 .00000E+00     0.000     0.000
BIGSUB   1        0    6.92246E+02     3.215     0.000   323.599     0.000     0.000     3.215     0.000     0.000     0.000     0.000     0.000     0.000     0.000     0.000     0.000     0.000     0.000     0.000 .00000E+00     0.000     0.000
BIGSUB   2        0    6.23299E+03     3.746     0.000   350.413     0.000     3.059     3.748     0.000     0.000     0.000     0.000     0.000     0.000     0.000     0.000     0.000     0.000     0.000     0.000 .00000E+00     0.000     0.000
BIGSUB   3        0    6.38037E+03     3.731     0.000   363.881     0.000     2.612     3.731     0.000     0.000     0.000     0.000     0.000     0.000     0.000     0.000     0.000     0.000     0.000     0.000 .00000E+00     0.000     0.000
BIGSUB   4        0    6.15208E+02     3.579     0.000   350.215     0.000     3.684     3.579     0.000     0.000     0.000     0.000     0.000     0.000     0.000     0.000     0.000     0.000     0.000     0.000 .00000E+00     0.000     0.000
BIGSUB   5        0    6.21043E+03     4.342     0.000   394.916     0.000     3.684     4.342     0.000     0.000     0.000     0.000     0.000     0.000     0.000     0.000     0.000     0.000     0.000     0.000 .00000E+00     0.000     0.000
BIGSUB   6        0    6.65523E+02     3.869     0.000   359.622     0.000     3.684     3.869     0.000     0.000     0.000     0.000     0.000     0.000     0.000     0.000     0.000     0.000     0.000     0.000 .00000E+00     0.000     0.000
BIGSUB   7        0    6.43383E+03     4.426     0.000   402.205     0.000     3.684     4.426     0.000     0.000     0.000     0.000     0.000     0.000     0.000     0.000     0.000     0.000     0.000     0.000 .00000E+00     0.000     0.000
BIGSUB   8        0    6.41143E+02     3.856     0.000   357.642     0.000     3.684     3.856     0.000     0.000     0.000     0.000     0.000     0.000     0.000     0.000     0.000     0.000     0.000     0.000 .00000E+00     0.000     0.000
BIGSUB   9        0    6.18844E+03     4.766     0.000   401.476     0.000     3.684     4.766     0.000     0.000     0.000     0.000     0.000     0.000     0.000     0.000     0.000     0.000     0.000     0.000 .00000E+00     0.000     0.000
BIGSUB  10        0    6.44145E+03     4.478     0.000   403.125     0.000     3.684     4.478     0.000     0.000     0.000     0.000     0.000     0.000     0.000     0.000     0.000     0.000     0.000     0.000 .00000E+00     0.000     0.000
BIGSUB  11        0    6.26654E+03     5.318     0.000   434.697     0.000     3.684     5.317     0.000     0.000     0.000     0.000     0.000     0.000     0.000     0.000     0.000     0.000     0.000     0.000 .00000E+00     0.000     0.000
BIGSUB  12        0    6.37734E+03     5.140     0.000   416.663     0.000     3.684     5.139     0.000     0.000     0.000     0.000     0.000     0.000     0.000     0.000     0.000     0.000     0.000     0.000 .00000E+00     0.000     0.000
BIGSUB  13        0    6.10047E+03     4.707     0.000   398.951     0.000     3.684     4.707     0.000     0.000     0.000     0.000     0.000     0.000     0.000     0.000     0.000     0.000     0.000     0.000 .00000E+00     0.000     0.000
BIGSUB  14        0    6.40591E+03     5.325     0.000   431.724     0.000     3.684     5.324     0.000     0.000     0.000     0.000     0.000     0.000     0.000     0.000     0.000     0.000     0.000     0.000 .00000E+00     0.000     0.000
BIGSUB  15        0    6.93438E+01     4.481     0.000   385.942     0.000     1.839     4.481     0.000     0.000     0.000     0.000     0.000     0.000     0.000     0.000     0.000     0.000     0.000     0.000 .00000E+00     0.000     0.000
BIGSUB  16        0    6.19614E+03    30.371     0.006   143.636     0.706     3.684    29.947     0.000     0.000     0.000     0.000     0.000     0.000     0.000     0.000     0.000     0.000     0.000     0.000 .00000E+00     0.000     0.000
BIGSUB  17        0    6.21300E+03    30.184     0.083   119.044     6.966     4.078    28.308     0.000     0.000     0.000     0.000     0.000     0.000     0.000     0.000     0.000     0.000     0.000     0.000 .00000E+00     0.000     0.000
BIGSUB  18        0    6.16251E+03    30.265     0.084   121.472     6.568     4.071    28.438     0.000     0.000     0.000     0.000     0.000     0.000     0.000     0.000     0.000     0.000     0.000     0.000 .00000E+00     0.000     0.000
BIGSUB  19        0    6.11313E+03    30.508     0.000   151.901     0.000     3.684    30.506     0.000     0.000     0.000     0.000     0.000     0.000     0.000     0.000     0.000     0.000     0.000     0.000 .00000E+00     0.000     0.000
BIGSUB  20        0    6.18095E+03    30.502     0.000   149.171     0.545     4.566    30.500     0.000     0.000     0.000     0.000     0.000     0.000     0.000     0.000     0.000     0.000     0.000     0.000 .00000E+00     0.000     0.000
BIGSUB  21        0    6.19302E+03    30.462     0.000   146.863     0.000     3.684    30.460     0.000     0.000     0.000     0.000     0.000     0.000     0.000     0.000     0.000     0.000     0.000     0.000 .00000E+00     0.000     0.000
BIGSUB  22        0    6.25311E+03    30.567     0.000   150.972     0.769     4.701    30.565     0.000     0.000     0.000     0.000     0.000     0.000     0.000     0.000     0.000     0.000     0.000     0.000 .00000E+00     0.000     0.000
BIGSUB  23        0    6.41604E+03    30.451     0.000   143.719     0.000     3.684    30.448     0.000     0.000     0.000     0.000     0.000     0.000     0.000     0.000     0.000     0.000     0.000     0.000 .00000E+00     0.000     0.000
BIGSUB  24        0    6.15058E+03    30.647     0.000   153.991     0.860     4.521    30.645     0.000     0.000     0.000     0.000     0.000     0.000     0.000     0.000     0.000     0.000     0.000     0.000 .00000E+00     0.000     0.000
BIGSUB  25        0    6.27520E+03    30.563     0.000   148.556     0.000     3.684    30.561     0.000     0.000     0.000     0.000     0.000     0.000     0.000     0.000     0.000     0.000     0.000     0.000 .00000E+00     0.000     0.000
BIGSUB  26        0    6.49767E+03    30.835     0.000   161.847     0.375     3.715    30.833     0.000     0.000     0.000     0.000     0.000     0.000     0.000     0.000     0.000     0.000     0.000     0.000 .00000E+00     0.000     0.000
BIGSUB  27        0    6.37782E+03    31.245     0.000   182.826     0.000     3.684    31.243     0.000     0.000     0.000     0.000     0.000     0.000     0.000     0.000     0.000     0.000     0.000     0.000 .00000E+00     0.000     0.000
BIGSUB  28        0    6.17287E+03    30.705     0.000   151.860     0.879     4.936    30.703     0.000     0.000     0.000     0.000     0.000     0.000     0.000     0.000     0.000     0.000     0.000     0.000 .00000E+00     0.000     0.000
BIGSUB  29        0    6.25132E+03    30.762     0.000   152.905     0.000     3.684    30.760     0.000     0.000     0.000     0.000     0.000     0.000     0.000     0.000     0.000     0.000     0.000     0.000 .00000E+00     0.000     0.000
BIGSUB  30        0    6.19591E+03    31.308     0.000   177.550     0.000     3.684    31.306     0.000     0.000     0.000     0.000     0.000     0.000     0.000     0.000     0.000     0.000     0.000     0.000 .00000E+00     0.000     0.000
BIGSUB  31        0    6.47638E+03    31.300     0.000   179.231     0.000     3.684    31.298     0.000     0.000     0.000     0.000     0.000     0.000     0.000     0.000     0.000     0.000     0.000     0.000 .00000E+00     0.000     0.000
BIGSUB  32        0    6.57879E+03    30.934     0.000   158.354     0.604     3.878    30.932     0.000     0.000     0.000     0.000     0.000     0.000     0.000     0.000     0.000     0.000     0.000     0.000 .00000E+00     0.000     0.000
BIGSUB  33        0    6.29520E+03    31.508     0.000   184.969     0.287     3.268    31.506     0.000     0.000     0.000     0.000     0.000     0.000     0.000     0.000     0.000     0.000     0.000     0.000 .00000E+00     0.000     0.000
BIGSUB  34        0    6.22005E+03    31.544     0.000   181.890     1.230     2.452    31.542     0.000     0.000     0.000     0.000     0.000     0.000     0.000     0.000     0.000     0.000     0.000     0.000 .00000E+00     0.000     0.000
BIGSUB  35        0    6.66620E+03    31.073     0.000   161.779     0.734     3.787    31.071     0.000     0.000     0.000     0.000     0.000     0.000     0.000     0.000     0.000     0.000     0.000     0.000 .00000E+00     0.000     0.000
BIGSUB  36        0    6.19123E+03    31.094     0.000   159.991     0.000     3.684    31.092     0.000     0.000     0.000     0.000     0.000     0.000     0.000     0.000     0.000     0.000     0.000     0.000 .00000E+00     0.000     0.000
BIGSUB  37        0    6.72450E+00    30.002     5.107    78.389    18.234     5.299    35.107     0.000     0.000     0.000     0.000     0.000     0.000     0.000     0.000     0.000     0.000     0.000     0.000 .00000E+00     0.000     0.000
BIGSUB  38        0    6.19296E+03    31.414     0.000   171.185     0.000     3.684    31.431     0.000     0.000     0.000     0.000     0.000     0.000     0.000     0.000     0.000     0.000     0.000     0.000 .00000E+00     0.000     0.000
BIGSUB  39        0    6.50092E+03    31.128     0.000   159.697     1.239     3.181    31.139     0.000     0.000     0.000     0.000     0.000     0.000     0.000     0.000     0.000     0.000     0.000     0.000 .00000E+00     0.000     0.000
BIGSUB  40        0    6.78498E+03    31.312     0.000   164.183     1.319     2.725    31.316     0.000     0.000     0.000     0.000     0.000     0.000     0.000     0.000     0.000     0.000     0.000     0.000 .00000E+00     0.000     0.000
BIGSUB  41        0    6.23265E+03    31.591     0.000   175.058     2.538     2.253    31.604     0.000     0.000     0.000     0.000     0.000     0.000     0.000     0.000     0.000     0.000     0.000     0.000 .00000E+00     0.000     0.000
BIGSUB   1        0    7.92246E+02    11.122     0.000   307.965     0.000     0.000    11.123     0.000     0.000     0.000     0.000     0.000     0.000     0.000     0.000     0.000     0.000     0.000     0.000 .00000E+00     0.000     0.000
BIGSUB   2        0    7.23299E+03    11.917     0.000   335.752     0.000     3.059    11.922     0.000     0.000     0.000     0.000     0.000     0.000     0.000     0.000     0.000     0.000     0.000     0.000 .00000E+00     0.000     0.000
BIGSUB   3        0    7.38037E+03    11.904     0.000   347.308     0.000     2.612    11.903     0.000     0.000     0.000     0.000     0.000     0.000     0.000     0.000     0.000     0.000     0.000     0.000 .00000E+00     0.000     0.000
BIGSUB   4        0    7.15208E+02    11.669     0.000   333.666     0.000     3.684    11.668     0.000     0.000     0.000     0.000     0.000     0.000     0.000     0.000     0.000     0.000     0.000     0.000 .00000E+00     0.000     0.000
BIGSUB   5        0    7.21043E+03    12.814     0.000   381.112     0.000     3.684    12.813     0.000     0.000     0.000     0.000     0.000     0.000     0.000     0.000     0.000     0.000     0.000     0.000 .00000E+00     0.000     0.000
BIGSUB   6        0    7.65523E+02    12.104     0.000   343.943     0.000     3.684    12.104     0.000     0.000     0.000     0.000     0.000     0.000     0.000     0.000     0.000     0.000     0.000     0.000 .00000E+00     0.000     0.000
BIGSUB   7        0    7.43383E+03    12.940     0.000   387.567     0.000     3.684    12.939     0.000     0.000     0.000     0.000     0.000     0.000     0.000     0.000     0.000     0.000     0.000     0.000 .00000E+00     0.000     0.000
BIGSUB   8        0    7.41143E+02    12.085     0.000   341.558     0.000     3.684    12.084     0.000     0.000     0.000     0.000     0.000     0.000     0.000     0.000     0.000     0.000     0.000     0.000 .00000E+00     0.000     0.000
BIGSUB   9        0    7.18844E+03    13.450     0.000   390.854     0.000     3.684    13.449     0.000     0.000     0.000     0.000     0.000     0.000     0.000     0.000     0.000     0.000     0.000     0.000 .00000E+00     0.000     0.000
BIGSUB  10        0    7.44145E+03    13.017     0.000   387.506     0.000     3.684    13.016     0.000     0.000     0.000     0.000     0.000     0.000     0.000     0.000     0.000     0.000     0.000     0.000 .00000E+00     0.000     0.000
BIGSUB  11        0    7.26654E+03    14.277     0.000   428.117     0.000     3.684    14.276     0.000     0.000     0.000     0.000     0.000     0.000     0.000     0.000     0.000     0.000     0.000     0.000 .00000E+00     0.000     0.000
BIGSUB  12        0    7.37734E+03    14.004     0.000   408.112     0.000     3.684    14.003     0.000     0.000     0.000     0.000     0.000     0.000     0.000     0.000     0.000     0.000     0.000     0.000 .00000E+00     0.000     0.000
BIGSUB  13        0    7.10047E+03    13.361     0.000   385.265     0.000     3.684    13.360     0.000     0.000     0.000     0.000     0.000     0.000     0.000     0.000     0.000     0.000     0.000     0.000 .00000E+00     0.000     0.000
BIGSUB  14        0    7.40591E+03    14.287     0.000   422.727     0.000     3.684    14.286     0.000     0.000     0.000     0.000     0.000     0.000     0.000     0.000     0.000     0.000     0.000     0.000 .00000E+00     0.000     0.000
BIGSUB  15        0    7.93438E+01    13.022     0.000   370.317     0.000     1.839    13.021     0.000     0.000     0.000     0.000     0.000     0.000     0.000     0.000     0.000     0.000     0.000     0.000 .00000E+00     0.000     0.000
BIGSUB  16        0    7.19614E+03    97.056     0.000   143.733     0.000    11.201    89.531     0.000     0.000     0.000     0.000     0.000     0.000     0.000     0.000     0.000     0.000     0.000     0.000 .00000E+00     0.000     0.000
BIGSUB  17        0    7.21300E+03    96.748     0.000   130.468     0.180    11.872    88.769     0.000     0.000     0.000     0.000     0.000     0.000     0.000     0.000     0.000     0.000     0.000     0.000 .00000E+00     0.000     0.000
BIGSUB  18        0    7.16251E+03    96.914     0.000   132.933     0.097    11.888    88.993     0.000     0.000     0.000     0.000     0.000     0.000     0.000     0.000     0.000     0.000     0.000     0.000 .00000E+00     0.000     0.000
BIGSUB  19        0    7.11313E+03    97.238     0.000   151.144     0.000    11.181    89.734     0.000     0.000     0.000     0.000     0.000     0.000     0.000     0.000     0.000     0.000     0.000     0.000 .00000E+00     0.000     0.000
BIGSUB  20        0    7.18095E+03    97.174     0.000   149.109     1.521    10.753    89.459     0.000     0.000     0.000     0.000     0.000     0.000     0.000     0.000     0.000     0.000     0.000     0.000 .00000E+00     0.000     0.000
BIGSUB  21        0    7.19302E+03    97.119     0.000   146.677     0.000    11.153    89.644     0.000     0.000     0.000     0.000     0.000     0.000     0.000     0.000     0.000     0.000     0.000     0.000 .00000E+00     0.000     0.000
BIGSUB  22        0    7.25311E+03    97.260     0.000   150.505     1.866    10.548    89.541     0.000     0.000     0.000     0.000     0.000     0.000     0.000     0.000     0.000     0.000     0.000     0.000 .00000E+00     0.000     0.000
BIGSUB  23        0    7.41604E+03    97.105     0.000   143.549     0.000    11.173    89.609     0.000     0.000     0.000     0.000     0.000     0.000     0.000     0.000     0.000     0.000     0.000     0.000 .00000E+00     0.000     0.000
BIGSUB  24        0    7.15058E+03    97.367     0.000   152.828     1.773    10.314    89.794     0.000     0.000     0.000     0.000     0.000     0.000     0.000     0.000     0.000     0.000     0.000     0.000 .00000E+00     0.000     0.000
BIGSUB  25        0    7.27520E+03    97.255     0.000   147.918     0.000    11.121    89.810     0.000     0.000     0.000     0.000     0.000     0.000     0.000     0.000     0.000     0.000     0.000     0.000 .00000E+00     0.000     0.000
BIGSUB  26        0    7.49767E+03    97.617     0.000   160.135     0.266    10.758    90.302     0.000     0.000     0.000     0.000     0.000     0.000     0.000     0.000     0.000     0.000     0.000     0.000 .00000E+00     0.000     0.000
BIGSUB  27        0    7.37782E+03    98.220     0.000   180.047     0.000    10.994    90.904     0.000     0.000     0.000     0.000     0.000     0.000     0.000     0.000     0.000     0.000     0.000     0.000 .00000E+00     0.000     0.000
BIGSUB  28        0    7.17287E+03    97.444     0.000   150.823     2.020    10.612    89.743     0.000     0.000     0.000     0.000     0.000     0.000     0.000     0.000     0.000     0.000     0.000     0.000 .00000E+00     0.000     0.000
BIGSUB  29        0    7.25132E+03    97.576     0.000   152.004     0.000    11.090    90.164     0.000     0.000     0.000     0.000     0.000     0.000     0.000     0.000     0.000     0.000     0.000     0.000 .00000E+00     0.000     0.000
BIGSUB  30        0    7.19591E+03    98.248     0.000   175.428     0.000    11.047    90.878     0.000     0.000     0.000     0.000     0.000     0.000     0.000     0.000     0.000     0.000     0.000     0.000 .00000E+00     0.000     0.000
BIGSUB  31        0    7.47638E+03    98.237     0.000   176.369     0.000    11.040    90.874     0.000     0.000     0.000     0.000     0.000     0.000     0.000     0.000     0.000     0.000     0.000     0.000 .00000E+00     0.000     0.000
BIGSUB  32        0    7.57879E+03    97.750     0.000   156.806     1.253     9.931    90.437     0.000     0.000     0.000     0.000     0.000     0.000     0.000     0.000     0.000     0.000     0.000     0.000 .00000E+00     0.000     0.000
BIGSUB  33        0    7.29520E+03    98.515     0.000   181.899     0.586     9.814    91.376     0.000     0.000     0.000     0.000     0.000     0.000     0.000     0.000     0.000     0.000     0.000     0.000 .00000E+00     0.000     0.000
BIGSUB  34        0    7.22005E+03    98.562     0.000   179.187     1.524     7.584    91.900     0.000     0.000     0.000     0.000     0.000     0.000     0.000     0.000     0.000     0.000     0.000     0.000 .00000E+00     0.000     0.000
BIGSUB  35        0    7.66620E+03    97.935     0.000   160.104     1.314     9.716    90.686     0.000     0.000     0.000     0.000     0.000     0.000     0.000     0.000     0.000     0.000     0.000     0.000 .00000E+00     0.000     0.000
BIGSUB  36        0    7.19123E+03    97.963     0.000   158.509     0.000    11.060    90.579     0.000     0.000     0.000     0.000     0.000     0.000     0.000     0.000     0.000     0.000     0.000     0.000 .00000E+00     0.000     0.000
BIGSUB  37        0    7.72450E+00    96.507     0.000   116.072     2.406    16.399    82.994     0.000     0.000     0.000     0.000     0.000     0.000     0.000     0.000     0.000     0.000     0.000     0.000 .00000E+00     0.000     0.000
BIGSUB  38        0    7.19296E+03    98.354     0.000   168.898     0.000    11.062    91.029     0.000     0.000     0.000     0.000     0.000     0.000     0.000     0.000     0.000     0.000     0.000     0.000 .00000E+00     0.000     0.000
BIGSUB  39        0    7.50092E+03    97.982     0.000   158.170     0.968     9.019    91.213     0.000     0.000     0.000     0.000     0.000     0.000     0.000     0.000     0.000     0.000     0.000     0.000 .00000E+00     0.000     0.000
BIGSUB  40        0    7.78498E+03    98.243     0.000   162.372     1.112     8.013    91.855     0.000     0.000     0.000     0.000     0.000     0.000     0.000     0.000     0.000     0.000     0.000     0.000 .00000E+00     0.000     0.000
BIGSUB  41        0    7.23265E+03    98.599     0.000   172.534     1.801     7.155    91.935     0.000     0.000     0.000     0.000     0.000     0.000     0.000     0.000     0.000     0.000     0.000     0.000 .00000E+00     0.000     0.000
BIGSUB   1        0    8.92246E+02     3.707     0.000   310.041     0.000     0.000     3.708     0.000     0.000     0.000     0.000     0.000     0.000     0.000     0.000     0.000     0.000     0.000     0.000 .00000E+00     0.000     0.000
BIGSUB   2        0    8.23299E+03     3.972     0.000   336.377     0.000     3.059     3.974     0.000     0.000     0.000     0.000     0.000     0.000     0.000     0.000     0.000     0.000     0.000     0.000 .00000E+00     0.000     0.000
BIGSUB   3        0    8.38037E+03     3.968     0.000   349.474     0.000     2.612     3.968     0.000     0.000     0.000     0.000     0.000     0.000     0.000     0.000     0.000     0.000     0.000     0.000 .00000E+00     0.000     0.000
BIGSUB   4        0    8.15208E+02     3.890     0.000   335.979     0.000     3.684     3.889     0.000     0.000     0.000     0.000     0.000     0.000     0.000     0.000     0.000     0.000     0.000     0.000 .00000E+00     0.000     0.000
BIGSUB   5        0    8.21043E+03     4.271     0.000   382.052     0.000     3.684     4.271     0.000     0.000     0.000     0.000     0.000     0.000     0.000     0.000     0.000     0.000     0.000     0.000 .00000E+00     0.000     0.000
BIGSUB   6        0    8.65523E+02     4.035     0.000   345.388     0.000     3.684     4.035     0.000     0.000     0.000     0.000     0.000     0.000     0.000     0.000     0.000     0.000     0.000     0.000 .00000E+00     0.000     0.000
BIGSUB   7        0    8.43383E+03     4.313     0.000   389.067     0.000     3.684     4.313     0.000     0.000     0.000     0.000     0.000     0.000     0.000     0.000     0.000     0.000     0.000     0.000 .00000E+00     0.000     0.000
BIGSUB   8        0    8.41143E+02     4.028     0.000   343.342     0.000     3.684     4.028     0.000     0.000     0.000     0.000     0.000     0.000     0.000     0.000     0.000     0.000     0.000     0.000 .00000E+00     0.000     0.000
BIGSUB   9        0    8.18844E+03     4.483     0.000   390.687     0.000     3.684     4.483     0.000     0.000     0.000     0.000     0.000     0.000     0.000     0.000     0.000     0.000     0.000     0.000 .00000E+00     0.000     0.000
BIGSUB  10        0    8.44145E+03     4.339     0.000   389.519     0.000     3.684     4.339     0.000     0.000     0.000     0.000     0.000     0.000     0.000     0.000     0.000     0.000     0.000     0.000 .00000E+00     0.000     0.000
BIGSUB  11        0    8.26654E+03     4.759     0.000   427.661     0.000     3.684     4.759     0.000     0.000     0.000     0.000     0.000     0.000     0.000     0.000     0.000     0.000     0.000     0.000 .00000E+00     0.000     0.000
BIGSUB  12        0    8.37734E+03     4.668     0.000   407.689     0.000     3.684     4.668     0.000     0.000     0.000     0.000     0.000     0.000     0.000     0.000     0.000     0.000     0.000     0.000 .00000E+00     0.000     0.000
BIGSUB  13        0    8.10047E+03     4.454     0.000   386.278     0.000     3.684     4.453     0.000     0.000     0.000     0.000     0.000     0.000     0.000     0.000     0.000     0.000     0.000     0.000 .00000E+00     0.000     0.000
BIGSUB  14        0    8.40591E+03     4.762     0.000   422.908     0.000     3.684     4.762     0.000     0.000     0.000     0.000     0.000     0.000     0.000     0.000     0.000     0.000     0.000     0.000 .00000E+00     0.000     0.000
BIGSUB  15        0    8.93438E+01     4.341     0.000   372.061     0.000     1.839     4.340     0.000     0.000     0.000     0.000     0.000     0.000     0.000     0.000     0.000     0.000     0.000     0.000 .00000E+00     0.000     0.000
BIGSUB  16        0    8.19614E+03    31.027     0.000   131.378     0.000    15.607    26.619     0.000     0.000     0.000     0.000     0.000     0.000     0.000     0.000     0.000     0.000     0.000     0.000 .00000E+00     0.000     0.000
BIGSUB  17        0    8.21300E+03    30.859     0.000   119.558     0.466    17.746    24.518     0.000     0.000     0.000     0.000     0.000     0.000     0.000     0.000     0.000     0.000     0.000     0.000 .00000E+00     0.000     0.000
BIGSUB  18        0    8.16251E+03    30.935     0.000   121.810     0.230    16.261    26.330     0.000     0.000     0.000     0.000     0.000     0.000     0.000     0.000     0.000     0.000     0.000     0.000 .00000E+00     0.000     0.000
BIGSUB  19        0    8.11313E+03    31.145     0.000   138.224     0.000    15.556    26.769     0.000     0.000     0.000     0.000     0.000     0.000     0.000     0.000     0.000     0.000     0.000     0.000 .00000E+00     0.000     0.000
BIGSUB  20        0    8.18095E+03    31.136     0.000   136.067     1.710    11.955    28.221     0.000     0.000     0.000     0.000     0.000     0.000     0.000     0.000     0.000     0.000     0.000     0.000 .00000E+00     0.000     0.000
BIGSUB  21        0    8.19302E+03    31.100     0.000   134.071     0.000    15.460    26.791     0.000     0.000     0.000     0.000     0.000     0.000     0.000     0.000     0.000     0.000     0.000     0.000 .00000E+00     0.000     0.000
BIGSUB  22        0    8.25311E+03    31.192     0.000   137.519     1.892    11.166    28.680     0.000     0.000     0.000     0.000     0.000     0.000     0.000     0.000     0.000     0.000     0.000     0.000 .00000E+00     0.000     0.000
BIGSUB  23        0    8.41604E+03    31.091     0.000   131.388     0.000    15.522    26.739     0.000     0.000     0.000     0.000     0.000     0.000     0.000     0.000     0.000     0.000     0.000     0.000 .00000E+00     0.000     0.000
BIGSUB  24        0    8.15058E+03    31.261     0.000   139.955     1.627    11.111    28.835     0.000     0.000     0.000     0.000     0.000     0.000     0.000     0.000     0.000     0.000     0.000     0.000 .00000E+00     0.000     0.000
BIGSUB  25        0    8.27520E+03    31.188     0.000   135.430     0.000    15.369    26.938     0.000     0.000     0.000     0.000     0.000     0.000     0.000     0.000     0.000     0.000     0.000     0.000 .00000E+00     0.000     0.000
BIGSUB  26        0    8.49767E+03    31.424     0.000   146.581     0.024    14.232    27.924     0.000     0.000     0.000     0.000     0.000     0.000     0.000     0.000     0.000     0.000     0.000     0.000 .00000E+00     0.000     0.000
BIGSUB  27        0    8.37782E+03    31.784     0.000   164.579     0.000    15.021    27.755     0.000     0.000     0.000     0.000     0.000     0.000     0.000     0.000     0.000     0.000     0.000     0.000 .00000E+00     0.000     0.000
BIGSUB  28        0    8.17287E+03    31.311     0.000   138.182     1.901    10.779    29.241     0.000     0.000     0.000     0.000     0.000     0.000     0.000     0.000     0.000     0.000     0.000     0.000 .00000E+00     0.000     0.000
BIGSUB  29        0    8.25132E+03    31.365     0.000   139.104     0.000    15.286    27.167     0.000     0.000     0.000     0.000     0.000     0.000     0.000     0.000     0.000     0.000     0.000     0.000 .00000E+00     0.000     0.000
BIGSUB  30        0    8.19591E+03    31.834     0.000   160.174     0.000    15.196    27.683     0.000     0.000     0.000     0.000     0.000     0.000     0.000     0.000     0.000     0.000     0.000     0.000 .00000E+00     0.000     0.000
BIGSUB  31        0    8.47638E+03    31.827     0.000   161.385     0.000    15.173    27.692     0.000     0.000     0.000     0.000     0.000     0.000     0.000     0.000     0.000     0.000     0.000     0.000 .00000E+00     0.000     0.000
BIGSUB  32        0    8.57879E+03    31.510     0.000   143.643     0.747    12.385    28.306     0.000     0.000     0.000     0.000     0.000     0.000     0.000     0.000     0.000     0.000     0.000     0.000 .00000E+00     0.000     0.000
BIGSUB  33        0    8.29520E+03    32.008     0.000   166.402     0.000    13.538    28.281     0.000     0.000     0.000     0.000     0.000     0.000     0.000     0.000     0.000     0.000     0.000     0.000 .00000E+00     0.000     0.000
BIGSUB  34        0    8.22005E+03    32.038     0.000   163.827     0.000     9.918    29.702     0.000     0.000     0.000     0.000     0.000     0.000     0.000     0.000     0.000     0.000     0.000     0.000 .00000E+00     0.000     0.000
BIGSUB  35        0    8.66620E+03    31.630     0.000   146.578     0.714    12.029    28.601     0.000     0.000     0.000     0.000     0.000     0.000     0.000     0.000     0.000     0.000     0.000     0.000 .00000E+00     0.000     0.000
[...]
BIGSUB   2        0   12.23299E+03     0.487     0.000   140.072     0.000     3.059     0.487     0.000     0.000     0.000     0.000     0.000     0.000     0.000     0.000     0.000     0.000     0.000     0.000 .00000E+00     0.000     0.000
BIGSUB   3        0   12.38037E+03     0.482     0.000   142.813     0.000     2.612     0.482     0.000     0.000     0.000     0.000     0.000     0.000     0.000     0.000     0.000     0.000     0.000     0.000 .00000E+00     0.000     0.000
BIGSUB   4        0   12.15208E+02     0.445     0.000   130.110     0.000     3.684     0.445     0.000     0.000     0.000     0.000     0.000     0.000     0.000     0.000     0.000     0.000     0.000     0.000 .00000E+00     0.000     0.000
BIGSUB   5        0   12.21043E+03     0.636     0.000   179.240     0.000     3.684     0.636     0.000     0.000     0.000     0.000     0.000     0.000     0.000     0.000     0.000     0.000     0.000     0.000 .00000E+00     0.000     0.000
BIGSUB   6        0   12.65523E+02     0.517     0.000   143.694     0.000     3.684     0.517     0.000     0.000     0.000     0.000     0.000     0.000     0.000     0.000     0.000     0.000     0.000     0.000 .00000E+00     0.000     0.000
BIGSUB   7        0   12.43383E+03     0.657     0.000   182.929     0.000     3.684     0.657     0.000     0.000     0.000     0.000     0.000     0.000     0.000     0.000     0.000     0.000     0.000     0.000 .00000E+00     0.000     0.000
BIGSUB   8        0   12.41143E+02     0.514     0.000   140.005     0.000     3.684     0.514     0.000     0.000     0.000     0.000     0.000     0.000     0.000     0.000     0.000     0.000     0.000     0.000 .00000E+00     0.000     0.000
BIGSUB   9        0   12.18844E+03     0.741     0.000   191.223     0.000     3.684     0.741     0.000     0.000     0.000     0.000     0.000     0.000     0.000     0.000     0.000     0.000     0.000     0.000 .00000E+00     0.000     0.000
BIGSUB  10        0   12.44145E+03     0.669     0.000   180.877     0.000     3.684     0.669     0.000     0.000     0.000     0.000     0.000     0.000     0.000     0.000     0.000     0.000     0.000     0.000 .00000E+00     0.000     0.000
BIGSUB  11        0   12.26654E+03     0.879     0.000   221.875     0.000     3.684     0.879     0.000     0.000     0.000     0.000     0.000     0.000     0.000     0.000     0.000     0.000     0.000     0.000 .00000E+00     0.000     0.000
BIGSUB  12        0   12.37734E+03     0.835     0.000   206.202     0.000     3.684     0.835     0.000     0.000     0.000     0.000     0.000     0.000     0.000     0.000     0.000     0.000     0.000     0.000 .00000E+00     0.000     0.000
BIGSUB  13        0   12.10047E+03     0.727     0.000   183.091     0.000     3.684     0.727     0.000     0.000     0.000     0.000     0.000     0.000     0.000     0.000     0.000     0.000     0.000     0.000 .00000E+00     0.000     0.000
BIGSUB  14        0   12.40591E+03     0.881     0.000   217.103     0.000     3.684     0.881     0.000     0.000     0.000     0.000     0.000     0.000     0.000     0.000     0.000     0.000     0.000     0.000 .00000E+00     0.000     0.000
BIGSUB  15        0   12.93438E+01     0.670     0.000   166.767     0.000     1.839     0.670     0.000     0.000     0.000     0.000     0.000     0.000     0.000     0.000     0.000     0.000     0.000     0.000 .00000E+00     0.000     0.000
BIGSUB  16        0   12.19614E+03     0.123     0.000    10.426     0.577    36.222     0.000     0.000     0.000     0.000     0.000     0.000     0.000     0.000     0.000     0.000     0.000     0.000     0.000 .00000E+00     0.000     0.000
BIGSUB  17        0   12.21300E+03     0.112     0.000     9.144     0.398    35.821     0.000     0.000     0.000     0.000     0.000     0.000     0.000     0.000     0.000     0.000     0.000     0.000     0.000 .00000E+00     0.000     0.000
BIGSUB  18        0   12.16251E+03     0.116     0.000     9.448     0.382    31.989     0.002     0.000     0.000     0.000     0.000     0.000     0.000     0.000     0.000     0.000     0.000     0.000     0.000 .00000E+00     0.000     0.000
BIGSUB  19        0   12.11313E+03     0.132     0.000    11.663     0.547    34.046     0.000     0.000     0.000     0.000     0.000     0.000     0.000     0.000     0.000     0.000     0.000     0.000     0.000 .00000E+00     0.000     0.000
BIGSUB  20        0   12.18095E+03     0.133     0.000    10.859     0.238    22.773     0.006     0.000     0.000     0.000     0.000     0.000     0.000     0.000     0.000     0.000     0.000     0.000     0.000 .00000E+00     0.000     0.000
BIGSUB  21        0   12.19302E+03     0.131     0.000    10.869     0.534    33.612     0.000     0.000     0.000     0.000     0.000     0.000     0.000     0.000     0.000     0.000     0.000     0.000     0.000 .00000E+00     0.000     0.000
BIGSUB  22        0   12.25311E+03     0.138     0.000    11.372     0.202    20.217     0.006     0.000     0.000     0.000     0.000     0.000     0.000     0.000     0.000     0.000     0.000     0.000     0.000 .00000E+00     0.000     0.000
BIGSUB  23        0   12.41604E+03     0.130     0.000    10.708     0.359    33.016     0.000     0.000     0.000     0.000     0.000     0.000     0.000     0.000     0.000     0.000     0.000     0.000     0.000 .00000E+00     0.000     0.000
BIGSUB  24        0   12.15058E+03     0.143     0.000    12.267     0.949    19.836     0.021     0.000     0.000     0.000     0.000     0.000     0.000     0.000     0.000     0.000     0.000     0.000     0.000 .00000E+00     0.000     0.000
BIGSUB  25        0   12.27520E+03     0.137     0.000    11.439     1.034    31.190     0.000     0.000     0.000     0.000     0.000     0.000     0.000     0.000     0.000     0.000     0.000     0.000     0.000 .00000E+00     0.000     0.000
BIGSUB  26        0   12.49767E+03     0.156     0.000    13.387     0.526    29.714     0.009     0.000     0.000     0.000     0.000     0.000     0.000     0.000     0.000     0.000     0.000     0.000     0.000 .00000E+00     0.000     0.000
BIGSUB  27        0   12.37782E+03     0.181     0.000    33.112     2.062    30.613     0.000     0.000     0.000     0.000     0.000     0.000     0.000     0.000     0.000     0.000     0.000     0.000     0.000 .00000E+00     0.000     0.000
BIGSUB  28        0   12.17287E+03     0.147     0.000    12.050     0.349    18.020     0.013     0.000     0.000     0.000     0.000     0.000     0.000     0.000     0.000     0.000     0.000     0.000     0.000 .00000E+00     0.000     0.000
BIGSUB  29        0   12.25132E+03     0.149     0.000    11.967     0.397    32.484     0.000     0.000     0.000     0.000     0.000     0.000     0.000     0.000     0.000     0.000     0.000     0.000     0.000 .00000E+00     0.000     0.000
BIGSUB  30        0   12.19591E+03     0.187     0.000    15.485     0.544    34.012     0.000     0.000     0.000     0.000     0.000     0.000     0.000     0.000     0.000     0.000     0.000     0.000     0.000 .00000E+00     0.000     0.000
BIGSUB  31        0   12.47638E+03     0.187     0.000    32.087     2.107    31.751     0.000     0.000     0.000     0.000     0.000     0.000     0.000     0.000     0.000     0.000     0.000     0.000     0.000 .00000E+00     0.000     0.000
BIGSUB  32        0   12.57879E+03     0.162     0.000    13.010     0.321    25.119     0.018     0.000     0.000     0.000     0.000     0.000     0.000     0.000     0.000     0.000     0.000     0.000     0.000 .00000E+00     0.000     0.000
BIGSUB  33        0   12.29520E+03     0.200     0.000    34.031     1.916    27.489     0.020     0.000     0.000     0.000     0.000     0.000     0.000     0.000     0.000     0.000     0.000     0.000     0.000 .00000E+00     0.000     0.000
BIGSUB  34        0   12.22005E+03     0.203     0.000    33.194     1.300    19.100     0.071     0.000     0.000     0.000     0.000     0.000     0.000     0.000     0.000     0.000     0.000     0.000     0.000 .00000E+00     0.000     0.000
BIGSUB  35        0   12.66620E+03     0.171     0.000    13.440     1.113    23.967     0.019     0.000     0.000     0.000     0.000     0.000     0.000     0.000     0.000     0.000     0.000     0.000     0.000 .00000E+00     0.000     0.000
BIGSUB  36        0   12.19123E+03     0.173     0.000    26.605     2.062    31.454     0.000     0.000     0.000     0.000     0.000     0.000     0.000     0.000     0.000     0.000     0.000     0.000     0.000 .00000E+00     0.000     0.000
BIGSUB  37        0   12.72450E+00     0.100     0.000     6.948     0.529    35.554     0.000     0.000     0.000     0.000     0.000     0.000     0.000     0.000     0.000     0.000     0.000     0.000     0.000 .00000E+00     0.000     0.000
BIGSUB  38        0   12.19296E+03     0.195     0.000    30.034     2.202    31.194     0.000     0.000     0.000     0.000     0.000     0.000     0.000     0.000     0.000     0.000     0.000     0.000     0.000 .00000E+00     0.000     0.000
BIGSUB  39        0   12.50092E+03     0.176     0.000    26.656     1.463    22.347     0.010     0.000     0.000     0.000     0.000     0.000     0.000     0.000     0.000     0.000     0.000     0.000     0.000 .00000E+00     0.000     0.000
BIGSUB  40        0   12.78498E+03     0.188     0.000    27.921     1.465    20.844     0.016     0.000     0.000     0.000     0.000     0.000     0.000     0.000     0.000     0.000     0.000     0.000     0.000 .00000E+00     0.000     0.000
BIGSUB  41        0   12.23265E+03     0.207     0.000    31.183     0.941    14.448     0.070     0.000     0.000     0.000     0.000     0.000     0.000     0.000     0.000     0.000     0.000     0.000     0.000 .00000E+00     0.000     0.000
BIGSUB   1        0 1960.92246E+02    30.536     0.000  2848.071     9.313     0.000    30.538     0.000     0.000     0.000     0.000     0.000     0.000     0.000     0.000     0.001     0.000     0.000     0.000 .00000E+00     0.000     0.000
BIGSUB   2        0 1960.23299E+03    33.586     0.000  3254.201    12.582     3.059    33.602     0.000     0.000     0.000     0.000     0.000     0.000     0.000     0.000     0.001     0.000     0.000     0.000 .00000E+00     0.000     0.000
BIGSUB   3        0 1960.38037E+03    33.518     0.000  3368.009    10.171     2.612    33.516     0.000     0.000     0.000     0.000     0.000     0.000     0.000     0.000     0.001     0.000     0.000     0.000 .00000E+00     0.000     0.000
BIGSUB   4        0 1960.15208E+02    32.630     0.000  3185.442    12.127     3.684    32.627     0.000     0.000     0.000     0.000     0.000     0.000     0.000     0.000     0.001     0.000     0.000     0.000 .00000E+00     0.000     0.000
BIGSUB   5        0 1960.21043E+03    37.020     0.000  3822.993    12.127     3.684    37.018     0.000     0.000     0.000     0.000     0.000     0.000     0.000     0.000     0.001     0.000     0.000     0.000 .00000E+00     0.000     0.000
BIGSUB   6        0 1960.65523E+02    34.299     0.000  3343.699    12.127     3.684    34.297     0.000     0.000     0.000     0.000     0.000     0.000     0.000     0.000     0.001     0.000     0.000     0.000 .00000E+00     0.000     0.000
BIGSUB   7        0 1960.43383E+03    37.502     0.000  3899.978    12.127     3.684    37.500     0.000     0.000     0.000     0.000     0.000     0.000     0.000     0.000     0.001     0.000     0.000     0.000 .00000E+00     0.000     0.000
BIGSUB   8        0 1960.41143E+02    34.223     0.000  3305.140    12.127     3.684    34.221     0.000     0.000     0.000     0.000     0.000     0.000     0.000     0.000     0.001     0.000     0.000     0.000 .00000E+00     0.000     0.000
BIGSUB   9        0 1960.18844E+03    39.456     0.000  3938.838    12.127     3.684    39.453     0.000     0.000     0.000     0.000     0.000     0.000     0.000     0.000     0.001     0.000     0.000     0.000 .00000E+00     0.000     0.000
BIGSUB  10        0 1960.44145E+03    37.799     0.000  3894.893    12.127     3.684    37.797     0.000     0.000     0.000     0.000     0.000     0.000     0.000     0.000     0.001     0.000     0.000     0.000 .00000E+00     0.000     0.000
BIGSUB  11        0 1960.26654E+03    42.627     0.000  4357.482    12.127     3.684    42.624     0.000     0.000     0.000     0.000     0.000     0.000     0.000     0.000     0.001     0.000     0.000     0.000 .00000E+00     0.000     0.000
BIGSUB  12        0 1960.37734E+03    41.593     0.000  4135.970    12.127     3.684    41.590     0.000     0.000     0.000     0.000     0.000     0.000     0.000     0.000     0.001     0.000     0.000     0.000 .00000E+00     0.000     0.000
BIGSUB  13        0 1960.10047E+03    39.117     0.000  3875.944    12.127     3.684    39.115     0.000     0.000     0.000     0.000     0.000     0.000     0.000     0.000     0.001     0.000     0.000     0.000 .00000E+00     0.000     0.000
BIGSUB  14        0 1960.40591E+03    42.667     0.000  4313.115    12.127     3.684    42.664     0.000     0.000     0.000     0.000     0.000     0.000     0.000     0.000     0.001     0.000     0.000     0.000 .00000E+00     0.000     0.000
BIGSUB  15        0 1960.93438E+01    37.817     0.000  3681.512    15.732     1.839    37.814     0.000     0.000     0.000     0.000     0.000     0.000     0.000     0.000     0.001     0.000     0.000     0.000 .00000E+00     0.000     0.000
BIGSUB  16        0 1960.19614E+03   274.895     0.150   822.982    27.063    36.222   223.670     0.000     0.000     0.000     0.000     0.000     0.000     0.000     0.000     0.001     0.000     0.000     0.000 .00000E+00     0.000     0.000
BIGSUB  17        0 1960.21300E+03   273.644     0.299   684.757    40.534    35.821   204.013     0.000     0.000     0.000     0.000     0.000     0.000     0.000     0.000     0.001     0.000     0.000     0.000 .00000E+00     0.000     0.000
BIGSUB  18        0 1960.16251E+03   274.237     0.312   699.469    39.269    31.989   210.150     0.000     0.000     0.000     0.000     0.000     0.000     0.000     0.000     0.001     0.000     0.000     0.000 .00000E+00     0.000     0.000
BIGSUB  19        0 1960.11313E+03   275.744     0.085   916.527    26.953    34.046   227.810     0.000     0.000     0.000     0.000     0.000     0.000     0.000     0.000     0.001     0.000     0.000     0.000 .00000E+00     0.000     0.000
BIGSUB  20        0 1960.18095E+03   275.621     0.096   903.735    28.803    22.773   238.050     0.000     0.000     0.000     0.000     0.000     0.000     0.000     0.000     0.001     0.000     0.000     0.000 .00000E+00     0.000     0.000
BIGSUB  21        0 1960.19302E+03   275.368     0.080   890.037    26.373    33.612   228.279     0.000     0.000     0.000     0.000     0.000     0.000     0.000     0.000     0.001     0.000     0.000     0.000 .00000E+00     0.000     0.000
BIGSUB  22        0 1960.25311E+03   276.023     0.095   920.076    28.344    20.217   241.389     0.000     0.000     0.000     0.000     0.000     0.000     0.000     0.000     0.001     0.000     0.000     0.000 .00000E+00     0.000     0.000
BIGSUB  23        0 1960.41604E+03   275.299     0.055   871.552    26.059    33.016   228.022     0.000     0.000     0.000     0.000     0.000     0.000     0.000     0.000     0.001     0.000     0.000     0.000 .00000E+00     0.000     0.000
BIGSUB  24        0 1960.15058E+03   276.517     0.118   971.073    29.004    19.836   242.691     0.000     0.000     0.000     0.000     0.000     0.000     0.000     0.000     0.001     0.000     0.000     0.000 .00000E+00     0.000     0.000
BIGSUB  25        0 1960.27520E+03   275.997     0.123   927.217    27.000    31.190   230.458     0.000     0.000     0.000     0.000     0.000     0.000     0.000     0.000     0.001     0.000     0.000     0.000 .00000E+00     0.000     0.000
BIGSUB  26        0 1960.49767E+03   277.682     0.097  1042.433    24.608    29.714   237.838     0.000     0.000     0.000     0.000     0.000     0.000     0.000     0.000     0.001     0.000     0.000     0.000 .00000E+00     0.000     0.000
BIGSUB  27        0 1960.37782E+03   280.311     0.028  1264.809    22.849    30.613   242.576     0.000     0.000     0.000     0.000     0.000     0.000     0.000     0.000     0.001     0.000     0.000     0.000 .00000E+00     0.000     0.000
BIGSUB  28        0 1960.17287E+03   276.878     0.127   970.252    29.054    18.020   245.149     0.000     0.000     0.000     0.000     0.000     0.000     0.000     0.000     0.001     0.000     0.000     0.000 .00000E+00     0.000     0.000
BIGSUB  29        0 1960.25132E+03   277.316     0.077   983.427    22.788    32.484   234.298     0.000     0.000     0.000     0.000     0.000     0.000     0.000     0.000     0.001     0.000     0.000     0.000 .00000E+00     0.000     0.000
BIGSUB  30        0 1960.19591E+03   280.618     0.078  1170.939    20.953    34.012   240.170     0.000     0.000     0.000     0.000     0.000     0.000     0.000     0.000     0.001     0.000     0.000     0.000 .00000E+00     0.000     0.000
BIGSUB  31        0 1960.47638E+03   280.565     0.060  1204.564    23.818    31.751   240.675     0.000     0.000     0.000     0.000     0.000     0.000     0.000     0.000     0.001     0.000     0.000     0.000 .00000E+00     0.000     0.000
BIGSUB  32        0 1960.57879E+03   278.298     0.085  1023.209    24.566    25.119   241.972     0.000     0.000     0.000     0.000     0.000     0.000     0.000     0.000     0.001     0.000     0.000     0.000 .00000E+00     0.000     0.000
BIGSUB  33        0 1960.29520E+03   281.857     0.071  1264.615    25.323    27.489   244.764     0.000     0.000     0.000     0.000     0.000     0.000     0.000     0.000     0.001     0.000     0.000     0.000 .00000E+00     0.000     0.000
BIGSUB  34        0 1960.22005E+03   282.077     0.037  1238.091    24.732    19.100   255.554     0.000     0.000     0.000     0.000     0.000     0.000     0.000     0.000     0.001     0.000     0.000     0.000 .00000E+00     0.000     0.000
BIGSUB  35        0 1960.66620E+03   279.159     0.100  1053.507    25.452    23.967   244.850     0.000     0.000     0.000     0.000     0.000     0.000     0.000     0.000     0.001     0.000     0.000     0.000 .00000E+00     0.000     0.000
BIGSUB  36        0 1960.19123E+03   279.289     0.139  1081.165    26.288    31.454   237.200     0.000     0.000     0.000     0.000     0.000     0.000     0.000     0.000     0.001     0.000     0.000     0.000 .00000E+00     0.000     0.000
BIGSUB  37        0 1960.72450E+00   272.519   117.852   568.027    94.476    35.554   298.022     0.000     0.000     0.000     0.000     0.000     0.000     0.000     0.000     0.001     0.000     0.000     0.000 .00000E+00     0.000     0.000
BIGSUB  38        0 1960.19296E+03   281.216     0.113  1174.789    25.797    31.194   240.063     0.000     0.000     0.000     0.000     0.000     0.000     0.000     0.000     0.001     0.000     0.000     0.000 .00000E+00     0.000     0.000
BIGSUB  39        0 1960.50092E+03   279.459     0.151  1078.314    26.464    22.347   247.623     0.000     0.000     0.000     0.000     0.000     0.000     0.000     0.000     0.001     0.000     0.000     0.000 .00000E+00     0.000     0.000
BIGSUB  40        0 1960.78498E+03   280.625     0.153  1113.896    26.690    20.844   250.071     0.000     0.000     0.000     0.000     0.000     0.000     0.000     0.000     0.001     0.000     0.000     0.000 .00000E+00     0.000     0.000
BIGSUB  41        0 1960.23265E+03   282.332     0.098  1208.603    25.535    14.448   260.424     0.000     0.000     0.000     0.000     0.000     0.000     0.000     0.000     0.001     0.000     0.000     0.000 .00000E+00     0.000     0.000
